1



                                 *********************************************

                                    NUMERICAL ELECTROMAGNETICS CODE (NEC-2D)

                                 *********************************************




                                     - - - - COMMENTS - - - -


                                                                                                     
                                                                                                     




                                 - - - STRUCTURE SPECIFICATION - - -

                                     COORDINATES MUST BE INPUT IN
                                     METERS OR BE SCALED TO METERS
                                     BEFORE STRUCTURE INPUT IS ENDED


  WIRE                                                                               NO. OF    FIRST  LAST     TAG
  NO.        X1         Y1         Z1          X2         Y2         Z2      RADIUS   SEG.     SEG.   SEG.     NO.
     1  -15.65248    0.00000    2.00000     0.00000    0.00000   16.00000    0.00100     50        1    50       1
     2    0.00000    0.00000   16.00000    15.65248    0.00000    2.00000    0.00100     50       51   100       2
     3  -15.65248    0.00000    2.00000   -15.65248    0.00000    0.00000    0.01000      5      101   105       3

   GROUND PLANE SPECIFIED.

   WHERE WIRE ENDS TOUCH GROUND, CURRENT WILL BE INTERPOLATED TO IMAGE IN GROUND PLANE.


   TOTAL SEGMENTS USED=  105     NO. SEG. IN A SYMMETRIC CELL=  105     SYMMETRY FLAG=  0


         - MULTIPLE WIRE JUNCTIONS -
 JUNCTION    SEGMENTS  (- FOR END 1, + FOR END 2)
  NONE




                                 - - - - SEGMENTATION DATA - - - -

                                        COORDINATES IN METERS

                         I+ AND I- INDICATE THE SEGMENTS BEFORE AND AFTER I


  SEG.   COORDINATES OF SEG. CENTER     SEG.     ORIENTATION ANGLES    WIRE    CONNECTION DATA   TAG
  NO.       X         Y         Z       LENGTH     ALPHA     BETA      RADIUS    I-   I    I+    NO.
     1 -15.49596   0.00000   2.14000   0.42000   41.81031   0.00000   0.00100  -101    1    2      1
     2 -15.18291   0.00000   2.42000   0.42000   41.81031   0.00000   0.00100     1    2    3      1
     3 -14.86986   0.00000   2.70000   0.42000   41.81031   0.00000   0.00100     2    3    4      1
     4 -14.55681   0.00000   2.98000   0.42000   41.81031   0.00000   0.00100     3    4    5      1
     5 -14.24376   0.00000   3.26000   0.42000   41.81031   0.00000   0.00100     4    5    6      1
     6 -13.93071   0.00000   3.54000   0.42000   41.81031   0.00000   0.00100     5    6    7      1
     7 -13.61766   0.00000   3.82000   0.42000   41.81031   0.00000   0.00100     6    7    8      1
     8 -13.30461   0.00000   4.10000   0.42000   41.81031   0.00000   0.00100     7    8    9      1
     9 -12.99156   0.00000   4.38000   0.42000   41.81031   0.00000   0.00100     8    9   10      1
    10 -12.67851   0.00000   4.66000   0.42000   41.81031   0.00000   0.00100     9   10   11      1
    11 -12.36546   0.00000   4.94000   0.42000   41.81031   0.00000   0.00100    10   11   12      1
    12 -12.05241   0.00000   5.22000   0.42000   41.81031   0.00000   0.00100    11   12   13      1
    13 -11.73936   0.00000   5.50000   0.42000   41.81031   0.00000   0.00100    12   13   14      1
    14 -11.42631   0.00000   5.78000   0.42000   41.81031   0.00000   0.00100    13   14   15      1
    15 -11.11326   0.00000   6.06000   0.42000   41.81031   0.00000   0.00100    14   15   16      1
    16 -10.80021   0.00000   6.34000   0.42000   41.81031   0.00000   0.00100    15   16   17      1
    17 -10.48716   0.00000   6.62000   0.42000   41.81031   0.00000   0.00100    16   17   18      1
    18 -10.17411   0.00000   6.90000   0.42000   41.81031   0.00000   0.00100    17   18   19      1
    19  -9.86106   0.00000   7.18000   0.42000   41.81031   0.00000   0.00100    18   19   20      1
    20  -9.54801   0.00000   7.46000   0.42000   41.81031   0.00000   0.00100    19   20   21      1
    21  -9.23496   0.00000   7.74000   0.42000   41.81031   0.00000   0.00100    20   21   22      1
    22  -8.92191   0.00000   8.02000   0.42000   41.81031   0.00000   0.00100    21   22   23      1
    23  -8.60886   0.00000   8.30000   0.42000   41.81031   0.00000   0.00100    22   23   24      1
    24  -8.29581   0.00000   8.58000   0.42000   41.81031   0.00000   0.00100    23   24   25      1
    25  -7.98276   0.00000   8.86000   0.42000   41.81031   0.00000   0.00100    24   25   26      1
    26  -7.66972   0.00000   9.14000   0.42000   41.81031   0.00000   0.00100    25   26   27      1
    27  -7.35667   0.00000   9.42000   0.42000   41.81031   0.00000   0.00100    26   27   28      1
    28  -7.04362   0.00000   9.70000   0.42000   41.81031   0.00000   0.00100    27   28   29      1
    29  -6.73057   0.00000   9.98000   0.42000   41.81031   0.00000   0.00100    28   29   30      1
    30  -6.41752   0.00000  10.26000   0.42000   41.81031   0.00000   0.00100    29   30   31      1
    31  -6.10447   0.00000  10.54000   0.42000   41.81031   0.00000   0.00100    30   31   32      1
    32  -5.79142   0.00000  10.82000   0.42000   41.81031   0.00000   0.00100    31   32   33      1
    33  -5.47837   0.00000  11.10000   0.42000   41.81031   0.00000   0.00100    32   33   34      1
    34  -5.16532   0.00000  11.38000   0.42000   41.81031   0.00000   0.00100    33   34   35      1
    35  -4.85227   0.00000  11.66000   0.42000   41.81031   0.00000   0.00100    34   35   36      1
    36  -4.53922   0.00000  11.94000   0.42000   41.81031   0.00000   0.00100    35   36   37      1
    37  -4.22617   0.00000  12.22000   0.42000   41.81031   0.00000   0.00100    36   37   38      1
    38  -3.91312   0.00000  12.50000   0.42000   41.81031   0.00000   0.00100    37   38   39      1
    39  -3.60007   0.00000  12.78000   0.42000   41.81031   0.00000   0.00100    38   39   40      1
    40  -3.28702   0.00000  13.06000   0.42000   41.81031   0.00000   0.00100    39   40   41      1
    41  -2.97397   0.00000  13.34000   0.42000   41.81031   0.00000   0.00100    40   41   42      1
    42  -2.66092   0.00000  13.62000   0.42000   41.81031   0.00000   0.00100    41   42   43      1
    43  -2.34787   0.00000  13.90000   0.42000   41.81031   0.00000   0.00100    42   43   44      1
    44  -2.03482   0.00000  14.18000   0.42000   41.81031   0.00000   0.00100    43   44   45      1
    45  -1.72177   0.00000  14.46000   0.42000   41.81031   0.00000   0.00100    44   45   46      1
    46  -1.40872   0.00000  14.74000   0.42000   41.81031   0.00000   0.00100    45   46   47      1
    47  -1.09567   0.00000  15.02000   0.42000   41.81031   0.00000   0.00100    46   47   48      1
    48  -0.78262   0.00000  15.30000   0.42000   41.81031   0.00000   0.00100    47   48   49      1
    49  -0.46957   0.00000  15.58000   0.42000   41.81031   0.00000   0.00100    48   49   50      1
    50  -0.15652   0.00000  15.86000   0.42000   41.81031   0.00000   0.00100    49   50   51      1
    51   0.15652   0.00000  15.86000   0.42000  -41.81031   0.00000   0.00100    50   51   52      2
    52   0.46957   0.00000  15.58000   0.42000  -41.81031   0.00000   0.00100    51   52   53      2
    53   0.78262   0.00000  15.30000   0.42000  -41.81031   0.00000   0.00100    52   53   54      2
    54   1.09567   0.00000  15.02000   0.42000  -41.81031   0.00000   0.00100    53   54   55      2
    55   1.40872   0.00000  14.74000   0.42000  -41.81031   0.00000   0.00100    54   55   56      2
    56   1.72177   0.00000  14.46000   0.42000  -41.81031   0.00000   0.00100    55   56   57      2
    57   2.03482   0.00000  14.18000   0.42000  -41.81031   0.00000   0.00100    56   57   58      2
    58   2.34787   0.00000  13.90000   0.42000  -41.81031   0.00000   0.00100    57   58   59      2
    59   2.66092   0.00000  13.62000   0.42000  -41.81031   0.00000   0.00100    58   59   60      2
    60   2.97397   0.00000  13.34000   0.42000  -41.81031   0.00000   0.00100    59   60   61      2
    61   3.28702   0.00000  13.06000   0.42000  -41.81031   0.00000   0.00100    60   61   62      2
    62   3.60007   0.00000  12.78000   0.42000  -41.81031   0.00000   0.00100    61   62   63      2
    63   3.91312   0.00000  12.50000   0.42000  -41.81031   0.00000   0.00100    62   63   64      2
    64   4.22617   0.00000  12.22000   0.42000  -41.81031   0.00000   0.00100    63   64   65      2
    65   4.53922   0.00000  11.94000   0.42000  -41.81031   0.00000   0.00100    64   65   66      2
    66   4.85227   0.00000  11.66000   0.42000  -41.81031   0.00000   0.00100    65   66   67      2
    67   5.16532   0.00000  11.38000   0.42000  -41.81031   0.00000   0.00100    66   67   68      2
    68   5.47837   0.00000  11.10000   0.42000  -41.81031   0.00000   0.00100    67   68   69      2
    69   5.79142   0.00000  10.82000   0.42000  -41.81031   0.00000   0.00100    68   69   70      2
    70   6.10447   0.00000  10.54000   0.42000  -41.81031   0.00000   0.00100    69   70   71      2
    71   6.41752   0.00000  10.26000   0.42000  -41.81031   0.00000   0.00100    70   71   72      2
    72   6.73056   0.00000   9.98000   0.42000  -41.81031   0.00000   0.00100    71   72   73      2
    73   7.04361   0.00000   9.70000   0.42000  -41.81031   0.00000   0.00100    72   73   74      2
    74   7.35666   0.00000   9.42000   0.42000  -41.81031   0.00000   0.00100    73   74   75      2
    75   7.66971   0.00000   9.14000   0.42000  -41.81031   0.00000   0.00100    74   75   76      2
    76   7.98276   0.00000   8.86000   0.42000  -41.81031   0.00000   0.00100    75   76   77      2
    77   8.29581   0.00000   8.58000   0.42000  -41.81031   0.00000   0.00100    76   77   78      2
    78   8.60886   0.00000   8.30000   0.42000  -41.81031   0.00000   0.00100    77   78   79      2
    79   8.92191   0.00000   8.02000   0.42000  -41.81031   0.00000   0.00100    78   79   80      2
    80   9.23496   0.00000   7.74000   0.42000  -41.81031   0.00000   0.00100    79   80   81      2
    81   9.54801   0.00000   7.46000   0.42000  -41.81031   0.00000   0.00100    80   81   82      2
    82   9.86106   0.00000   7.18000   0.42000  -41.81031   0.00000   0.00100    81   82   83      2
    83  10.17411   0.00000   6.90000   0.42000  -41.81031   0.00000   0.00100    82   83   84      2
    84  10.48716   0.00000   6.62000   0.42000  -41.81031   0.00000   0.00100    83   84   85      2
    85  10.80021   0.00000   6.34000   0.42000  -41.81031   0.00000   0.00100    84   85   86      2
    86  11.11326   0.00000   6.06000   0.42000  -41.81031   0.00000   0.00100    85   86   87      2
    87  11.42631   0.00000   5.78000   0.42000  -41.81031   0.00000   0.00100    86   87   88      2
    88  11.73936   0.00000   5.50000   0.42000  -41.81031   0.00000   0.00100    87   88   89      2
    89  12.05241   0.00000   5.22000   0.42000  -41.81031   0.00000   0.00100    88   89   90      2
    90  12.36546   0.00000   4.94000   0.42000  -41.81031   0.00000   0.00100    89   90   91      2
    91  12.67851   0.00000   4.66000   0.42000  -41.81031   0.00000   0.00100    90   91   92      2
    92  12.99156   0.00000   4.38000   0.42000  -41.81031   0.00000   0.00100    91   92   93      2
    93  13.30460   0.00000   4.10000   0.42000  -41.81031   0.00000   0.00100    92   93   94      2
    94  13.61765   0.00000   3.82000   0.42000  -41.81031   0.00000   0.00100    93   94   95      2
    95  13.93070   0.00000   3.54000   0.42000  -41.81031   0.00000   0.00100    94   95   96      2
    96  14.24375   0.00000   3.26000   0.42000  -41.81031   0.00000   0.00100    95   96   97      2
    97  14.55680   0.00000   2.98000   0.42000  -41.81031   0.00000   0.00100    96   97   98      2
    98  14.86985   0.00000   2.70000   0.42000  -41.81031   0.00000   0.00100    97   98   99      2
    99  15.18290   0.00000   2.42000   0.42000  -41.81031   0.00000   0.00100    98   99  100      2
   100  15.49595   0.00000   2.14000   0.42000  -41.81031   0.00000   0.00100    99  100    0      2
   101 -15.65248   0.00000   1.80000   0.40000  -90.00000   0.00000   0.01000    -1  101  102      3
   102 -15.65248   0.00000   1.40000   0.40000  -90.00000   0.00000   0.01000   101  102  103      3
   103 -15.65248   0.00000   1.00000   0.40000  -90.00000   0.00000   0.01000   102  103  104      3
   104 -15.65248   0.00000   0.60000   0.40000  -90.00000   0.00000   0.01000   103  104  105      3
   105 -15.65248   0.00000   0.20000   0.40000  -90.00000   0.00000   0.01000   104  105  105      3






 ***** DATA CARD NO.  1   LD   0     1     5     5  0.00000E+00  1.50000E-06  0.00000E+00  0.00000E+00  0.00000E+00  0.00000E+00
 ***** DATA CARD NO.  2   GN   2     0     0     0  1.30000E+01  2.00000E-03  0.00000E+00  0.00000E+00  0.00000E+00  0.00000E+00
 ***** DATA CARD NO.  3   EK   0     0     0     0  0.00000E+00  0.00000E+00  0.00000E+00  0.00000E+00  0.00000E+00  0.00000E+00
 ***** DATA CARD NO.  4   EX   0     1     2     0  1.00000E+00  0.00000E+00  0.00000E+00  0.00000E+00  0.00000E+00  0.00000E+00
 ***** DATA CARD NO.  5   FR   0   101     0     0  3.00000E+00  3.00000E-02  0.00000E+00  0.00000E+00  0.00000E+00  0.00000E+00
 ***** DATA CARD NO.  6   XQ   0     0     0     0  0.00000E+00  0.00000E+00  0.00000E+00  0.00000E+00  0.00000E+00  0.00000E+00




                                 - - - - - - FREQUENCY - - - - - -

                                    FREQUENCY= 3.0000E+00 MHZ
                                    WAVELENGTH= 9.9933E+01 METERS




                    APPROXIMATE INTEGRATION EMPLOYED FOR SEGMENTS MORE THAN   1.000 WAVELENGTHS APART

                    THE EXTENDED THIN WIRE KERNEL WILL BE USED



                               - - - STRUCTURE IMPEDANCE LOADING - - -


       LOCATION          RESISTANCE   INDUCTANCE  CAPACITANCE       IMPEDANCE (OHMS)     CONDUCTIVITY    TYPE
    ITAG FROM THRU          OHMS        HENRYS       FARADS        REAL      IMAGINARY    MHOS/METER

       1    5    5                   1.5000E-06                                                        SERIES 



                                  - - - ANTENNA ENVIRONMENT - - -

                                        FINITE GROUND.  SOMMERFELD SOLUTION
                                        RELATIVE DIELECTRIC CONST.= 13.000
                                        CONDUCTIVITY= 2.000E-03 MHOS/METER
                                        COMPLEX DIELECTRIC CONSTANT= 1.30000E+01-1.19840E+01



                                - - - MATRIX TIMING - - -

                        FILL=    0.047 SEC.,  FACTOR=    0.000 SEC.



                                          - - - ANTENNA INPUT PARAMETERS - - -

   TAG   SEG.    VOLTAGE (VOLTS)         CURRENT (AMPS)         IMPEDANCE (OHMS)        ADMITTANCE (MHOS)      POWER
   NO.   NO.    REAL        IMAG.       REAL        IMAG.       REAL        IMAG.       REAL        IMAG.     (WATTS)
     1     2 1.00000E+00 0.00000E+00 7.20926E-04-7.43459E-04 6.72213E+02 6.93224E+02 7.20926E-04-7.43459E-04 3.60463E-04



                             - - - CURRENTS AND LOCATION - - -

                                 DISTANCES IN WAVELENGTHS


  SEG.  TAG    COORD. OF SEG. CENTER     SEG.            - - - CURRENT (AMPS) - - -
  NO.   NO.     X        Y        Z      LENGTH     REAL        IMAG.       MAG.        PHASE
     1    1  -0.1551   0.0000   0.0214  0.00420   6.8916E-04 -7.4186E-04  1.0126E-03  -47.109
     2    1  -0.1519   0.0000   0.0242  0.00420   7.2093E-04 -7.4346E-04  1.0356E-03  -45.882
     3    1  -0.1488   0.0000   0.0270  0.00420   7.5238E-04 -7.9865E-04  1.0972E-03  -46.709
     4    1  -0.1457   0.0000   0.0298  0.00420   7.8330E-04 -8.5765E-04  1.1615E-03  -47.594
     5    1  -0.1425   0.0000   0.0326  0.00420   8.1348E-04 -9.1325E-04  1.2230E-03  -48.307
     6    1  -0.1394   0.0000   0.0354  0.00420   8.4173E-04 -9.6532E-04  1.2808E-03  -48.913
     7    1  -0.1363   0.0000   0.0382  0.00420   8.6919E-04 -1.0155E-03  1.3367E-03  -49.440
     8    1  -0.1331   0.0000   0.0410  0.00420   8.9601E-04 -1.0643E-03  1.3912E-03  -49.906
     9    1  -0.1300   0.0000   0.0438  0.00420   9.2215E-04 -1.1116E-03  1.4443E-03  -50.322
    10    1  -0.1269   0.0000   0.0466  0.00420   9.4761E-04 -1.1576E-03  1.4960E-03  -50.697
    11    1  -0.1237   0.0000   0.0494  0.00420   9.7235E-04 -1.2023E-03  1.5463E-03  -51.036
    12    1  -0.1206   0.0000   0.0522  0.00420   9.9638E-04 -1.2457E-03  1.5952E-03  -51.346
    13    1  -0.1175   0.0000   0.0550  0.00420   1.0197E-03 -1.2879E-03  1.6427E-03  -51.629
    14    1  -0.1143   0.0000   0.0578  0.00420   1.0423E-03 -1.3287E-03  1.6887E-03  -51.889
    15    1  -0.1112   0.0000   0.0606  0.00420   1.0641E-03 -1.3684E-03  1.7334E-03  -52.130
    16    1  -0.1081   0.0000   0.0634  0.00420   1.0852E-03 -1.4067E-03  1.7766E-03  -52.353
    17    1  -0.1049   0.0000   0.0662  0.00420   1.1055E-03 -1.4438E-03  1.8184E-03  -52.560
    18    1  -0.1018   0.0000   0.0690  0.00420   1.1250E-03 -1.4796E-03  1.8588E-03  -52.753
    19    1  -0.0987   0.0000   0.0718  0.00420   1.1438E-03 -1.5142E-03  1.8977E-03  -52.933
    20    1  -0.0955   0.0000   0.0746  0.00420   1.1618E-03 -1.5475E-03  1.9351E-03  -53.102
    21    1  -0.0924   0.0000   0.0775  0.00420   1.1790E-03 -1.5795E-03  1.9710E-03  -53.260
    22    1  -0.0893   0.0000   0.0803  0.00420   1.1954E-03 -1.6101E-03  2.0054E-03  -53.409
    23    1  -0.0861   0.0000   0.0831  0.00420   1.2110E-03 -1.6395E-03  2.0383E-03  -53.550
    24    1  -0.0830   0.0000   0.0859  0.00420   1.2258E-03 -1.6676E-03  2.0696E-03  -53.682
    25    1  -0.0799   0.0000   0.0887  0.00420   1.2397E-03 -1.6943E-03  2.0995E-03  -53.808
    26    1  -0.0767   0.0000   0.0915  0.00420   1.2529E-03 -1.7198E-03  2.1277E-03  -53.927
    27    1  -0.0736   0.0000   0.0943  0.00420   1.2652E-03 -1.7438E-03  2.1544E-03  -54.039
    28    1  -0.0705   0.0000   0.0971  0.00420   1.2766E-03 -1.7666E-03  2.1796E-03  -54.146
    29    1  -0.0674   0.0000   0.0999  0.00420   1.2872E-03 -1.7880E-03  2.2031E-03  -54.248
    30    1  -0.0642   0.0000   0.1027  0.00420   1.2970E-03 -1.8080E-03  2.2251E-03  -54.345
    31    1  -0.0611   0.0000   0.1055  0.00420   1.3059E-03 -1.8266E-03  2.2455E-03  -54.438
    32    1  -0.0580   0.0000   0.1083  0.00420   1.3140E-03 -1.8439E-03  2.2642E-03  -54.526
    33    1  -0.0548   0.0000   0.1111  0.00420   1.3212E-03 -1.8598E-03  2.2814E-03  -54.610
    34    1  -0.0517   0.0000   0.1139  0.00420   1.3276E-03 -1.8744E-03  2.2969E-03  -54.691
    35    1  -0.0486   0.0000   0.1167  0.00420   1.3331E-03 -1.8875E-03  2.3108E-03  -54.769
    36    1  -0.0454   0.0000   0.1195  0.00420   1.3377E-03 -1.8993E-03  2.3231E-03  -54.843
    37    1  -0.0423   0.0000   0.1223  0.00420   1.3414E-03 -1.9097E-03  2.3337E-03  -54.914
    38    1  -0.0392   0.0000   0.1251  0.00420   1.3443E-03 -1.9187E-03  2.3428E-03  -54.982
    39    1  -0.0360   0.0000   0.1279  0.00420   1.3464E-03 -1.9263E-03  2.3501E-03  -55.048
    40    1  -0.0329   0.0000   0.1307  0.00420   1.3475E-03 -1.9325E-03  2.3559E-03  -55.111
    41    1  -0.0298   0.0000   0.1335  0.00420   1.3478E-03 -1.9373E-03  2.3600E-03  -55.172
    42    1  -0.0266   0.0000   0.1363  0.00420   1.3473E-03 -1.9407E-03  2.3625E-03  -55.231
    43    1  -0.0235   0.0000   0.1391  0.00420   1.3459E-03 -1.9428E-03  2.3634E-03  -55.288
    44    1  -0.0204   0.0000   0.1419  0.00420   1.3436E-03 -1.9434E-03  2.3627E-03  -55.342
    45    1  -0.0172   0.0000   0.1447  0.00420   1.3405E-03 -1.9427E-03  2.3603E-03  -55.395
    46    1  -0.0141   0.0000   0.1475  0.00420   1.3365E-03 -1.9407E-03  2.3564E-03  -55.445
    47    1  -0.0110   0.0000   0.1503  0.00420   1.3317E-03 -1.9372E-03  2.3508E-03  -55.495
    48    1  -0.0078   0.0000   0.1531  0.00420   1.3260E-03 -1.9324E-03  2.3436E-03  -55.542
    49    1  -0.0047   0.0000   0.1559  0.00420   1.3195E-03 -1.9263E-03  2.3349E-03  -55.588
    50    1  -0.0016   0.0000   0.1587  0.00420   1.3122E-03 -1.9188E-03  2.3246E-03  -55.632
    51    2   0.0016   0.0000   0.1587  0.00420   1.3041E-03 -1.9099E-03  2.3127E-03  -55.674
    52    2   0.0047   0.0000   0.1559  0.00420   1.2952E-03 -1.8997E-03  2.2992E-03  -55.716
    53    2   0.0078   0.0000   0.1531  0.00420   1.2853E-03 -1.8883E-03  2.2842E-03  -55.757
    54    2   0.0110   0.0000   0.1503  0.00420   1.2747E-03 -1.8754E-03  2.2676E-03  -55.798
    55    2   0.0141   0.0000   0.1475  0.00420   1.2631E-03 -1.8613E-03  2.2494E-03  -55.838
    56    2   0.0172   0.0000   0.1447  0.00420   1.2508E-03 -1.8459E-03  2.2297E-03  -55.878
    57    2   0.0204   0.0000   0.1419  0.00420   1.2376E-03 -1.8291E-03  2.2084E-03  -55.917
    58    2   0.0235   0.0000   0.1391  0.00420   1.2236E-03 -1.8110E-03  2.1856E-03  -55.957
    59    2   0.0266   0.0000   0.1363  0.00420   1.2087E-03 -1.7917E-03  2.1613E-03  -55.996
    60    2   0.0298   0.0000   0.1335  0.00420   1.1931E-03 -1.7711E-03  2.1354E-03  -56.034
    61    2   0.0329   0.0000   0.1307  0.00420   1.1766E-03 -1.7491E-03  2.1081E-03  -56.072
    62    2   0.0360   0.0000   0.1279  0.00420   1.1594E-03 -1.7260E-03  2.0792E-03  -56.110
    63    2   0.0392   0.0000   0.1251  0.00420   1.1413E-03 -1.7015E-03  2.0489E-03  -56.148
    64    2   0.0423   0.0000   0.1223  0.00420   1.1225E-03 -1.6759E-03  2.0171E-03  -56.186
    65    2   0.0454   0.0000   0.1195  0.00420   1.1029E-03 -1.6490E-03  1.9838E-03  -56.223
    66    2   0.0486   0.0000   0.1167  0.00420   1.0826E-03 -1.6208E-03  1.9491E-03  -56.260
    67    2   0.0517   0.0000   0.1139  0.00420   1.0615E-03 -1.5915E-03  1.9131E-03  -56.297
    68    2   0.0548   0.0000   0.1111  0.00420   1.0397E-03 -1.5610E-03  1.8756E-03  -56.334
    69    2   0.0580   0.0000   0.1083  0.00420   1.0172E-03 -1.5293E-03  1.8367E-03  -56.371
    70    2   0.0611   0.0000   0.1055  0.00420   9.9397E-04 -1.4964E-03  1.7965E-03  -56.407
    71    2   0.0642   0.0000   0.1027  0.00420   9.7004E-04 -1.4624E-03  1.7549E-03  -56.443
    72    2   0.0674   0.0000   0.0999  0.00420   9.4544E-04 -1.4273E-03  1.7120E-03  -56.480
    73    2   0.0705   0.0000   0.0971  0.00420   9.2017E-04 -1.3911E-03  1.6679E-03  -56.516
    74    2   0.0736   0.0000   0.0943  0.00420   8.9424E-04 -1.3537E-03  1.6224E-03  -56.552
    75    2   0.0767   0.0000   0.0915  0.00420   8.6767E-04 -1.3153E-03  1.5757E-03  -56.588
    76    2   0.0799   0.0000   0.0887  0.00420   8.4047E-04 -1.2758E-03  1.5278E-03  -56.624
    77    2   0.0830   0.0000   0.0859  0.00420   8.1266E-04 -1.2353E-03  1.4786E-03  -56.660
    78    2   0.0861   0.0000   0.0831  0.00420   7.8426E-04 -1.1937E-03  1.4283E-03  -56.695
    79    2   0.0893   0.0000   0.0803  0.00420   7.5526E-04 -1.1511E-03  1.3768E-03  -56.731
    80    2   0.0924   0.0000   0.0775  0.00420   7.2570E-04 -1.1076E-03  1.3242E-03  -56.767
    81    2   0.0955   0.0000   0.0746  0.00420   6.9558E-04 -1.0631E-03  1.2704E-03  -56.803
    82    2   0.0987   0.0000   0.0718  0.00420   6.6492E-04 -1.0176E-03  1.2156E-03  -56.838
    83    2   0.1018   0.0000   0.0690  0.00420   6.3372E-04 -9.7116E-04  1.1596E-03  -56.874
    84    2   0.1049   0.0000   0.0662  0.00420   6.0202E-04 -9.2382E-04  1.1027E-03  -56.909
    85    2   0.1081   0.0000   0.0634  0.00420   5.6980E-04 -8.7558E-04  1.0447E-03  -56.945
    86    2   0.1112   0.0000   0.0606  0.00420   5.3709E-04 -8.2644E-04  9.8564E-04  -56.981
    87    2   0.1143   0.0000   0.0578  0.00420   5.0391E-04 -7.7643E-04  9.2562E-04  -57.016
    88    2   0.1175   0.0000   0.0550  0.00420   4.7025E-04 -7.2556E-04  8.6462E-04  -57.052
    89    2   0.1206   0.0000   0.0522  0.00420   4.3612E-04 -6.7382E-04  8.0264E-04  -57.088
    90    2   0.1237   0.0000   0.0494  0.00420   4.0153E-04 -6.2124E-04  7.3970E-04  -57.123
    91    2   0.1269   0.0000   0.0466  0.00420   3.6649E-04 -5.6779E-04  6.7580E-04  -57.159
    92    2   0.1300   0.0000   0.0438  0.00420   3.3099E-04 -5.1350E-04  6.1093E-04  -57.195
    93    2   0.1331   0.0000   0.0410  0.00420   2.9502E-04 -4.5832E-04  5.4507E-04  -57.231
    94    2   0.1363   0.0000   0.0382  0.00420   2.5857E-04 -4.0224E-04  4.7818E-04  -57.266
    95    2   0.1394   0.0000   0.0354  0.00420   2.2160E-04 -3.4521E-04  4.1022E-04  -57.302
    96    2   0.1425   0.0000   0.0326  0.00420   1.8408E-04 -2.8715E-04  3.4108E-04  -57.338
    97    2   0.1457   0.0000   0.0298  0.00420   1.4590E-04 -2.2791E-04  2.7061E-04  -57.374
    98    2   0.1488   0.0000   0.0270  0.00420   1.0691E-04 -1.6723E-04  1.9848E-04  -57.410
    99    2   0.1519   0.0000   0.0242  0.00420   6.6758E-05 -1.0457E-04  1.2406E-04  -57.446
   100    2   0.1551   0.0000   0.0214  0.00420   2.4038E-05 -3.7704E-05  4.4715E-05  -57.481
   101    3  -0.1566   0.0000   0.0180  0.00400  -6.5411E-04  7.4415E-04  9.9076E-04  131.316
   102    3  -0.1566   0.0000   0.0140  0.00400  -6.1574E-04  7.4272E-04  9.6477E-04  129.660
   103    3  -0.1566   0.0000   0.0100  0.00400  -5.7629E-04  7.3837E-04  9.3664E-04  127.972
   104    3  -0.1566   0.0000   0.0060  0.00400  -5.3491E-04  7.3133E-04  9.0608E-04  126.183
   105    3  -0.1566   0.0000   0.0020  0.00400  -4.9652E-04  7.2308E-04  8.7714E-04  124.476



                                        - - - POWER BUDGET - - -

                                           INPUT POWER   = 3.6046E-04 WATTS
                                           RADIATED POWER= 3.6046E-04 WATTS
                                           STRUCTURE LOSS= 0.0000E+00 WATTS
                                           NETWORK LOSS  = 0.0000E+00 WATTS
                                           EFFICIENCY    = 100.00 PERCENT




                                 - - - - - - FREQUENCY - - - - - -

                                    FREQUENCY= 3.0300E+00 MHZ
                                    WAVELENGTH= 9.8944E+01 METERS




                    APPROXIMATE INTEGRATION EMPLOYED FOR SEGMENTS MORE THAN   1.000 WAVELENGTHS APART

                    THE EXTENDED THIN WIRE KERNEL WILL BE USED



                               - - - STRUCTURE IMPEDANCE LOADING - - -


       LOCATION          RESISTANCE   INDUCTANCE  CAPACITANCE       IMPEDANCE (OHMS)     CONDUCTIVITY    TYPE
    ITAG FROM THRU          OHMS        HENRYS       FARADS        REAL      IMAGINARY    MHOS/METER

       1    5    5                   1.5000E-06                                                        SERIES 



                                  - - - ANTENNA ENVIRONMENT - - -

                                        FINITE GROUND.  SOMMERFELD SOLUTION
                                        RELATIVE DIELECTRIC CONST.= 13.000
                                        CONDUCTIVITY= 2.000E-03 MHOS/METER
                                        COMPLEX DIELECTRIC CONSTANT= 1.30000E+01-1.18654E+01



                                - - - MATRIX TIMING - - -

                        FILL=    0.047 SEC.,  FACTOR=    0.000 SEC.



                                          - - - ANTENNA INPUT PARAMETERS - - -

   TAG   SEG.    VOLTAGE (VOLTS)         CURRENT (AMPS)         IMPEDANCE (OHMS)        ADMITTANCE (MHOS)      POWER
   NO.   NO.    REAL        IMAG.       REAL        IMAG.       REAL        IMAG.       REAL        IMAG.     (WATTS)
     1     2 1.00000E+00 0.00000E+00 6.43042E-04-7.07960E-04 7.03000E+02 7.73972E+02 6.43042E-04-7.07960E-04 3.21521E-04



                             - - - CURRENTS AND LOCATION - - -

                                 DISTANCES IN WAVELENGTHS


  SEG.  TAG    COORD. OF SEG. CENTER     SEG.            - - - CURRENT (AMPS) - - -
  NO.   NO.     X        Y        Z      LENGTH     REAL        IMAG.       MAG.        PHASE
     1    1  -0.1566   0.0000   0.0216  0.00424   6.1376E-04 -7.0570E-04  9.3526E-04  -48.986
     2    1  -0.1534   0.0000   0.0245  0.00424   6.4304E-04 -7.0796E-04  9.5641E-04  -47.751
     3    1  -0.1503   0.0000   0.0273  0.00424   6.7206E-04 -7.6437E-04  1.0178E-03  -48.677
     4    1  -0.1471   0.0000   0.0301  0.00424   7.0060E-04 -8.2465E-04  1.0821E-03  -49.650
     5    1  -0.1440   0.0000   0.0329  0.00424   7.2846E-04 -8.8153E-04  1.1436E-03  -50.431
     6    1  -0.1408   0.0000   0.0358  0.00424   7.5458E-04 -9.3489E-04  1.2014E-03  -51.092
     7    1  -0.1376   0.0000   0.0386  0.00424   7.7999E-04 -9.8641E-04  1.2575E-03  -51.665
     8    1  -0.1345   0.0000   0.0414  0.00424   8.0481E-04 -1.0364E-03  1.3122E-03  -52.170
     9    1  -0.1313   0.0000   0.0443  0.00424   8.2903E-04 -1.0851E-03  1.3655E-03  -52.619
    10    1  -0.1281   0.0000   0.0471  0.00424   8.5262E-04 -1.1324E-03  1.4175E-03  -53.022
    11    1  -0.1250   0.0000   0.0499  0.00424   8.7557E-04 -1.1784E-03  1.4680E-03  -53.386
    12    1  -0.1218   0.0000   0.0528  0.00424   8.9787E-04 -1.2231E-03  1.5173E-03  -53.717
    13    1  -0.1186   0.0000   0.0556  0.00424   9.1951E-04 -1.2665E-03  1.5651E-03  -54.019
    14    1  -0.1155   0.0000   0.0584  0.00424   9.4049E-04 -1.3087E-03  1.6116E-03  -54.297
    15    1  -0.1123   0.0000   0.0612  0.00424   9.6079E-04 -1.3496E-03  1.6566E-03  -54.552
    16    1  -0.1092   0.0000   0.0641  0.00424   9.8041E-04 -1.3892E-03  1.7003E-03  -54.788
    17    1  -0.1060   0.0000   0.0669  0.00424   9.9934E-04 -1.4276E-03  1.7426E-03  -55.007
    18    1  -0.1028   0.0000   0.0697  0.00424   1.0176E-03 -1.4647E-03  1.7835E-03  -55.211
    19    1  -0.0997   0.0000   0.0726  0.00424   1.0351E-03 -1.5005E-03  1.8229E-03  -55.401
    20    1  -0.0965   0.0000   0.0754  0.00424   1.0519E-03 -1.5350E-03  1.8608E-03  -55.578
    21    1  -0.0933   0.0000   0.0782  0.00424   1.0680E-03 -1.5682E-03  1.8973E-03  -55.745
    22    1  -0.0902   0.0000   0.0811  0.00424   1.0833E-03 -1.6001E-03  1.9323E-03  -55.901
    23    1  -0.0870   0.0000   0.0839  0.00424   1.0979E-03 -1.6307E-03  1.9659E-03  -56.048
    24    1  -0.0838   0.0000   0.0867  0.00424   1.1118E-03 -1.6600E-03  1.9979E-03  -56.187
    25    1  -0.0807   0.0000   0.0895  0.00424   1.1249E-03 -1.6879E-03  2.0284E-03  -56.318
    26    1  -0.0775   0.0000   0.0924  0.00424   1.1373E-03 -1.7145E-03  2.0574E-03  -56.443
    27    1  -0.0744   0.0000   0.0952  0.00424   1.1489E-03 -1.7397E-03  2.0848E-03  -56.560
    28    1  -0.0712   0.0000   0.0980  0.00424   1.1597E-03 -1.7635E-03  2.1107E-03  -56.672
    29    1  -0.0680   0.0000   0.1009  0.00424   1.1697E-03 -1.7860E-03  2.1350E-03  -56.778
    30    1  -0.0649   0.0000   0.1037  0.00424   1.1790E-03 -1.8071E-03  2.1577E-03  -56.879
    31    1  -0.0617   0.0000   0.1065  0.00424   1.1875E-03 -1.8268E-03  2.1789E-03  -56.975
    32    1  -0.0585   0.0000   0.1094  0.00424   1.1952E-03 -1.8452E-03  2.1984E-03  -57.067
    33    1  -0.0554   0.0000   0.1122  0.00424   1.2021E-03 -1.8621E-03  2.2164E-03  -57.155
    34    1  -0.0522   0.0000   0.1150  0.00424   1.2082E-03 -1.8776E-03  2.2328E-03  -57.239
    35    1  -0.0490   0.0000   0.1178  0.00424   1.2136E-03 -1.8917E-03  2.2475E-03  -57.319
    36    1  -0.0459   0.0000   0.1207  0.00424   1.2181E-03 -1.9044E-03  2.2606E-03  -57.396
    37    1  -0.0427   0.0000   0.1235  0.00424   1.2218E-03 -1.9157E-03  2.2722E-03  -57.470
    38    1  -0.0395   0.0000   0.1263  0.00424   1.2248E-03 -1.9255E-03  2.2821E-03  -57.541
    39    1  -0.0364   0.0000   0.1292  0.00424   1.2269E-03 -1.9340E-03  2.2903E-03  -57.609
    40    1  -0.0332   0.0000   0.1320  0.00424   1.2283E-03 -1.9410E-03  2.2970E-03  -57.675
    41    1  -0.0301   0.0000   0.1348  0.00424   1.2288E-03 -1.9466E-03  2.3020E-03  -57.738
    42    1  -0.0269   0.0000   0.1377  0.00424   1.2286E-03 -1.9508E-03  2.3054E-03  -57.799
    43    1  -0.0237   0.0000   0.1405  0.00424   1.2275E-03 -1.9536E-03  2.3072E-03  -57.857
    44    1  -0.0206   0.0000   0.1433  0.00424   1.2257E-03 -1.9550E-03  2.3074E-03  -57.914
    45    1  -0.0174   0.0000   0.1461  0.00424   1.2231E-03 -1.9549E-03  2.3060E-03  -57.969
    46    1  -0.0142   0.0000   0.1490  0.00424   1.2197E-03 -1.9535E-03  2.3030E-03  -58.021
    47    1  -0.0111   0.0000   0.1518  0.00424   1.2155E-03 -1.9506E-03  2.2983E-03  -58.072
    48    1  -0.0079   0.0000   0.1546  0.00424   1.2105E-03 -1.9464E-03  2.2921E-03  -58.121
    49    1  -0.0047   0.0000   0.1575  0.00424   1.2048E-03 -1.9408E-03  2.2843E-03  -58.169
    50    1  -0.0016   0.0000   0.1603  0.00424   1.1983E-03 -1.9337E-03  2.2749E-03  -58.215
    51    2   0.0016   0.0000   0.1603  0.00424   1.1911E-03 -1.9254E-03  2.2640E-03  -58.259
    52    2   0.0047   0.0000   0.1575  0.00424   1.1830E-03 -1.9156E-03  2.2515E-03  -58.302
    53    2   0.0079   0.0000   0.1546  0.00424   1.1742E-03 -1.9045E-03  2.2374E-03  -58.345
    54    2   0.0111   0.0000   0.1518  0.00424   1.1646E-03 -1.8921E-03  2.2218E-03  -58.387
    55    2   0.0142   0.0000   0.1490  0.00424   1.1542E-03 -1.8783E-03  2.2046E-03  -58.429
    56    2   0.0174   0.0000   0.1461  0.00424   1.1430E-03 -1.8631E-03  2.1858E-03  -58.470
    57    2   0.0206   0.0000   0.1433  0.00424   1.1311E-03 -1.8466E-03  2.1655E-03  -58.511
    58    2   0.0237   0.0000   0.1405  0.00424   1.1184E-03 -1.8288E-03  2.1437E-03  -58.552
    59    2   0.0269   0.0000   0.1377  0.00424   1.1049E-03 -1.8096E-03  2.1203E-03  -58.592
    60    2   0.0301   0.0000   0.1348  0.00424   1.0907E-03 -1.7891E-03  2.0954E-03  -58.632
    61    2   0.0332   0.0000   0.1320  0.00424   1.0758E-03 -1.7673E-03  2.0690E-03  -58.671
    62    2   0.0364   0.0000   0.1292  0.00424   1.0601E-03 -1.7442E-03  2.0411E-03  -58.711
    63    2   0.0395   0.0000   0.1263  0.00424   1.0437E-03 -1.7199E-03  2.0118E-03  -58.750
    64    2   0.0427   0.0000   0.1235  0.00424   1.0265E-03 -1.6942E-03  1.9809E-03  -58.788
    65    2   0.0459   0.0000   0.1207  0.00424   1.0087E-03 -1.6673E-03  1.9486E-03  -58.827
    66    2   0.0490   0.0000   0.1178  0.00424   9.9013E-04 -1.6391E-03  1.9149E-03  -58.865
    67    2   0.0522   0.0000   0.1150  0.00424   9.7090E-04 -1.6097E-03  1.8798E-03  -58.903
    68    2   0.0554   0.0000   0.1122  0.00424   9.5099E-04 -1.5790E-03  1.8433E-03  -58.941
    69    2   0.0585   0.0000   0.1094  0.00424   9.3043E-04 -1.5472E-03  1.8054E-03  -58.979
    70    2   0.0617   0.0000   0.1065  0.00424   9.0920E-04 -1.5141E-03  1.7661E-03  -59.016
    71    2   0.0649   0.0000   0.1037  0.00424   8.8734E-04 -1.4799E-03  1.7255E-03  -59.054
    72    2   0.0680   0.0000   0.1009  0.00424   8.6485E-04 -1.4445E-03  1.6836E-03  -59.091
    73    2   0.0712   0.0000   0.0980  0.00424   8.4174E-04 -1.4080E-03  1.6404E-03  -59.128
    74    2   0.0744   0.0000   0.0952  0.00424   8.1803E-04 -1.3703E-03  1.5959E-03  -59.165
    75    2   0.0775   0.0000   0.0924  0.00424   7.9372E-04 -1.3316E-03  1.5502E-03  -59.202
    76    2   0.0807   0.0000   0.0895  0.00424   7.6884E-04 -1.2917E-03  1.5032E-03  -59.239
    77    2   0.0838   0.0000   0.0867  0.00424   7.4340E-04 -1.2508E-03  1.4550E-03  -59.275
    78    2   0.0870   0.0000   0.0839  0.00424   7.1740E-04 -1.2088E-03  1.4057E-03  -59.312
    79    2   0.0902   0.0000   0.0811  0.00424   6.9087E-04 -1.1658E-03  1.3551E-03  -59.349
    80    2   0.0933   0.0000   0.0782  0.00424   6.6381E-04 -1.1218E-03  1.3035E-03  -59.385
    81    2   0.0965   0.0000   0.0754  0.00424   6.3624E-04 -1.0767E-03  1.2507E-03  -59.422
    82    2   0.0997   0.0000   0.0726  0.00424   6.0817E-04 -1.0307E-03  1.1968E-03  -59.458
    83    2   0.1028   0.0000   0.0697  0.00424   5.7962E-04 -9.8378E-04  1.1418E-03  -59.494
    84    2   0.1060   0.0000   0.0669  0.00424   5.5059E-04 -9.3587E-04  1.0858E-03  -59.531
    85    2   0.1092   0.0000   0.0641  0.00424   5.2110E-04 -8.8704E-04  1.0288E-03  -59.567
    86    2   0.1123   0.0000   0.0612  0.00424   4.9116E-04 -8.3729E-04  9.7072E-04  -59.604
    87    2   0.1155   0.0000   0.0584  0.00424   4.6079E-04 -7.8665E-04  9.1167E-04  -59.640
    88    2   0.1186   0.0000   0.0556  0.00424   4.2998E-04 -7.3513E-04  8.5164E-04  -59.677
    89    2   0.1218   0.0000   0.0528  0.00424   3.9875E-04 -6.8273E-04  7.9064E-04  -59.713
    90    2   0.1250   0.0000   0.0499  0.00424   3.6710E-04 -6.2946E-04  7.2868E-04  -59.749
    91    2   0.1281   0.0000   0.0471  0.00424   3.3503E-04 -5.7532E-04  6.6576E-04  -59.786
    92    2   0.1313   0.0000   0.0443  0.00424   3.0255E-04 -5.2031E-04  6.0188E-04  -59.822
    93    2   0.1345   0.0000   0.0414  0.00424   2.6965E-04 -4.6440E-04  5.3701E-04  -59.859
    94    2   0.1376   0.0000   0.0386  0.00424   2.3631E-04 -4.0758E-04  4.7113E-04  -59.895
    95    2   0.1408   0.0000   0.0358  0.00424   2.0251E-04 -3.4979E-04  4.0418E-04  -59.932
    96    2   0.1440   0.0000   0.0329  0.00424   1.6820E-04 -2.9095E-04  3.3607E-04  -59.968
    97    2   0.1471   0.0000   0.0301  0.00424   1.3330E-04 -2.3092E-04  2.6663E-04  -60.005
    98    2   0.1503   0.0000   0.0273  0.00424   9.7664E-05 -1.6944E-04  1.9557E-04  -60.041
    99    2   0.1534   0.0000   0.0245  0.00424   6.0978E-05 -1.0595E-04  1.2224E-04  -60.078
   100    2   0.1566   0.0000   0.0216  0.00424   2.1954E-05 -3.8200E-05  4.4059E-05  -60.114
   101    3  -0.1582   0.0000   0.0182  0.00404  -5.8146E-04  7.0734E-04  9.1566E-04  129.421
   102    3  -0.1582   0.0000   0.0141  0.00404  -5.4612E-04  7.0521E-04  8.9195E-04  127.754
   103    3  -0.1582   0.0000   0.0101  0.00404  -5.0981E-04  7.0014E-04  8.6609E-04  126.060
   104    3  -0.1582   0.0000   0.0061  0.00404  -4.7176E-04  6.9238E-04  8.3782E-04  124.269
   105    3  -0.1582   0.0000   0.0020  0.00404  -4.3647E-04  6.8348E-04  8.1096E-04  122.563



                                        - - - POWER BUDGET - - -

                                           INPUT POWER   = 3.2152E-04 WATTS
                                           RADIATED POWER= 3.2152E-04 WATTS
                                           STRUCTURE LOSS= 0.0000E+00 WATTS
                                           NETWORK LOSS  = 0.0000E+00 WATTS
                                           EFFICIENCY    = 100.00 PERCENT




                                 - - - - - - FREQUENCY - - - - - -

                                    FREQUENCY= 3.0600E+00 MHZ
                                    WAVELENGTH= 9.7974E+01 METERS




                    APPROXIMATE INTEGRATION EMPLOYED FOR SEGMENTS MORE THAN   1.000 WAVELENGTHS APART

                    THE EXTENDED THIN WIRE KERNEL WILL BE USED



                               - - - STRUCTURE IMPEDANCE LOADING - - -


       LOCATION          RESISTANCE   INDUCTANCE  CAPACITANCE       IMPEDANCE (OHMS)     CONDUCTIVITY    TYPE
    ITAG FROM THRU          OHMS        HENRYS       FARADS        REAL      IMAGINARY    MHOS/METER

       1    5    5                   1.5000E-06                                                        SERIES 



                                  - - - ANTENNA ENVIRONMENT - - -

                                        FINITE GROUND.  SOMMERFELD SOLUTION
                                        RELATIVE DIELECTRIC CONST.= 13.000
                                        CONDUCTIVITY= 2.000E-03 MHOS/METER
                                        COMPLEX DIELECTRIC CONSTANT= 1.30000E+01-1.17490E+01



                                - - - MATRIX TIMING - - -

                        FILL=    0.063 SEC.,  FACTOR=    0.000 SEC.



                                          - - - ANTENNA INPUT PARAMETERS - - -

   TAG   SEG.    VOLTAGE (VOLTS)         CURRENT (AMPS)         IMPEDANCE (OHMS)        ADMITTANCE (MHOS)      POWER
   NO.   NO.    REAL        IMAG.       REAL        IMAG.       REAL        IMAG.       REAL        IMAG.     (WATTS)
     1     2 1.00000E+00 0.00000E+00 5.72665E-04-6.67324E-04 7.40579E+02 8.62994E+02 5.72665E-04-6.67324E-04 2.86332E-04



                             - - - CURRENTS AND LOCATION - - -

                                 DISTANCES IN WAVELENGTHS


  SEG.  TAG    COORD. OF SEG. CENTER     SEG.            - - - CURRENT (AMPS) - - -
  NO.   NO.     X        Y        Z      LENGTH     REAL        IMAG.       MAG.        PHASE
     1    1  -0.1582   0.0000   0.0218  0.00429   5.4579E-04 -6.6468E-04  8.6005E-04  -50.610
     2    1  -0.1550   0.0000   0.0247  0.00429   5.7266E-04 -6.6732E-04  8.7936E-04  -49.365
     3    1  -0.1518   0.0000   0.0276  0.00429   5.9931E-04 -7.2468E-04  9.4039E-04  -50.409
     4    1  -0.1486   0.0000   0.0304  0.00429   6.2554E-04 -7.8598E-04  1.0045E-03  -51.485
     5    1  -0.1454   0.0000   0.0333  0.00429   6.5115E-04 -8.4386E-04  1.0659E-03  -52.345
     6    1  -0.1422   0.0000   0.0361  0.00429   6.7519E-04 -8.9828E-04  1.1237E-03  -53.070
     7    1  -0.1390   0.0000   0.0390  0.00429   6.9858E-04 -9.5085E-04  1.1799E-03  -53.696
     8    1  -0.1358   0.0000   0.0418  0.00429   7.2145E-04 -1.0020E-03  1.2347E-03  -54.244
     9    1  -0.1326   0.0000   0.0447  0.00429   7.4378E-04 -1.0517E-03  1.2881E-03  -54.731
    10    1  -0.1294   0.0000   0.0476  0.00429   7.6553E-04 -1.1000E-03  1.3402E-03  -55.165
    11    1  -0.1262   0.0000   0.0504  0.00429   7.8672E-04 -1.1471E-03  1.3910E-03  -55.557
    12    1  -0.1230   0.0000   0.0533  0.00429   8.0732E-04 -1.1929E-03  1.4404E-03  -55.911
    13    1  -0.1198   0.0000   0.0561  0.00429   8.2732E-04 -1.2374E-03  1.4885E-03  -56.234
    14    1  -0.1166   0.0000   0.0590  0.00429   8.4672E-04 -1.2807E-03  1.5353E-03  -56.530
    15    1  -0.1134   0.0000   0.0619  0.00429   8.6551E-04 -1.3227E-03  1.5807E-03  -56.801
    16    1  -0.1102   0.0000   0.0647  0.00429   8.8368E-04 -1.3634E-03  1.6248E-03  -57.052
    17    1  -0.1070   0.0000   0.0676  0.00429   9.0122E-04 -1.4029E-03  1.6674E-03  -57.284
    18    1  -0.1038   0.0000   0.0704  0.00429   9.1812E-04 -1.4411E-03  1.7087E-03  -57.499
    19    1  -0.1006   0.0000   0.0733  0.00429   9.3438E-04 -1.4780E-03  1.7486E-03  -57.699
    20    1  -0.0975   0.0000   0.0761  0.00429   9.4999E-04 -1.5136E-03  1.7871E-03  -57.887
    21    1  -0.0943   0.0000   0.0790  0.00429   9.6494E-04 -1.5479E-03  1.8241E-03  -58.062
    22    1  -0.0911   0.0000   0.0819  0.00429   9.7923E-04 -1.5809E-03  1.8596E-03  -58.226
    23    1  -0.0879   0.0000   0.0847  0.00429   9.9284E-04 -1.6126E-03  1.8937E-03  -58.380
    24    1  -0.0847   0.0000   0.0876  0.00429   1.0058E-03 -1.6429E-03  1.9263E-03  -58.526
    25    1  -0.0815   0.0000   0.0904  0.00429   1.0180E-03 -1.6719E-03  1.9575E-03  -58.663
    26    1  -0.0783   0.0000   0.0933  0.00429   1.0296E-03 -1.6995E-03  1.9871E-03  -58.793
    27    1  -0.0751   0.0000   0.0961  0.00429   1.0404E-03 -1.7258E-03  2.0151E-03  -58.915
    28    1  -0.0719   0.0000   0.0990  0.00429   1.0506E-03 -1.7507E-03  2.0417E-03  -59.032
    29    1  -0.0687   0.0000   0.1019  0.00429   1.0600E-03 -1.7742E-03  2.0667E-03  -59.142
    30    1  -0.0655   0.0000   0.1047  0.00429   1.0688E-03 -1.7963E-03  2.0902E-03  -59.248
    31    1  -0.0623   0.0000   0.1076  0.00429   1.0768E-03 -1.8170E-03  2.1121E-03  -59.348
    32    1  -0.0591   0.0000   0.1104  0.00429   1.0841E-03 -1.8362E-03  2.1324E-03  -59.443
    33    1  -0.0559   0.0000   0.1133  0.00429   1.0906E-03 -1.8541E-03  2.1511E-03  -59.535
    34    1  -0.0527   0.0000   0.1162  0.00429   1.0965E-03 -1.8706E-03  2.1682E-03  -59.622
    35    1  -0.0495   0.0000   0.1190  0.00429   1.1016E-03 -1.8856E-03  2.1838E-03  -59.705
    36    1  -0.0463   0.0000   0.1219  0.00429   1.1060E-03 -1.8992E-03  2.1977E-03  -59.785
    37    1  -0.0431   0.0000   0.1247  0.00429   1.1096E-03 -1.9113E-03  2.2101E-03  -59.862
    38    1  -0.0399   0.0000   0.1276  0.00429   1.1126E-03 -1.9220E-03  2.2208E-03  -59.936
    39    1  -0.0367   0.0000   0.1304  0.00429   1.1148E-03 -1.9313E-03  2.2300E-03  -60.006
    40    1  -0.0335   0.0000   0.1333  0.00429   1.1162E-03 -1.9392E-03  2.2375E-03  -60.075
    41    1  -0.0304   0.0000   0.1362  0.00429   1.1169E-03 -1.9456E-03  2.2434E-03  -60.140
    42    1  -0.0272   0.0000   0.1390  0.00429   1.1169E-03 -1.9505E-03  2.2477E-03  -60.203
    43    1  -0.0240   0.0000   0.1419  0.00429   1.1162E-03 -1.9540E-03  2.2503E-03  -60.264
    44    1  -0.0208   0.0000   0.1447  0.00429   1.1147E-03 -1.9561E-03  2.2514E-03  -60.323
    45    1  -0.0176   0.0000   0.1476  0.00429   1.1125E-03 -1.9567E-03  2.2509E-03  -60.379
    46    1  -0.0144   0.0000   0.1504  0.00429   1.1096E-03 -1.9560E-03  2.2488E-03  -60.434
    47    1  -0.0112   0.0000   0.1533  0.00429   1.1060E-03 -1.9537E-03  2.2451E-03  -60.487
    48    1  -0.0080   0.0000   0.1562  0.00429   1.1016E-03 -1.9501E-03  2.2398E-03  -60.538
    49    1  -0.0048   0.0000   0.1590  0.00429   1.0966E-03 -1.9451E-03  2.2329E-03  -60.587
    50    1  -0.0016   0.0000   0.1619  0.00429   1.0908E-03 -1.9386E-03  2.2244E-03  -60.635
    51    2   0.0016   0.0000   0.1619  0.00429   1.0844E-03 -1.9308E-03  2.2144E-03  -60.681
    52    2   0.0048   0.0000   0.1590  0.00429   1.0772E-03 -1.9215E-03  2.2029E-03  -60.726
    53    2   0.0080   0.0000   0.1562  0.00429   1.0693E-03 -1.9109E-03  2.1897E-03  -60.770
    54    2   0.0112   0.0000   0.1533  0.00429   1.0607E-03 -1.8989E-03  2.1750E-03  -60.814
    55    2   0.0144   0.0000   0.1504  0.00429   1.0513E-03 -1.8855E-03  2.1588E-03  -60.857
    56    2   0.0176   0.0000   0.1476  0.00429   1.0412E-03 -1.8707E-03  2.1410E-03  -60.900
    57    2   0.0208   0.0000   0.1447  0.00429   1.0305E-03 -1.8546E-03  2.1216E-03  -60.943
    58    2   0.0240   0.0000   0.1419  0.00429   1.0190E-03 -1.8371E-03  2.1008E-03  -60.984
    59    2   0.0272   0.0000   0.1390  0.00429   1.0068E-03 -1.8182E-03  2.0783E-03  -61.026
    60    2   0.0304   0.0000   0.1362  0.00429   9.9390E-04 -1.7980E-03  2.0544E-03  -61.067
    61    2   0.0335   0.0000   0.1333  0.00429   9.8033E-04 -1.7765E-03  2.0290E-03  -61.108
    62    2   0.0367   0.0000   0.1304  0.00429   9.6609E-04 -1.7536E-03  2.0021E-03  -61.149
    63    2   0.0399   0.0000   0.1276  0.00429   9.5117E-04 -1.7294E-03  1.9737E-03  -61.189
    64    2   0.0431   0.0000   0.1247  0.00429   9.3560E-04 -1.7039E-03  1.9438E-03  -61.229
    65    2   0.0463   0.0000   0.1219  0.00429   9.1938E-04 -1.6771E-03  1.9125E-03  -61.268
    66    2   0.0495   0.0000   0.1190  0.00429   9.0251E-04 -1.6490E-03  1.8798E-03  -61.308
    67    2   0.0527   0.0000   0.1162  0.00429   8.8501E-04 -1.6196E-03  1.8457E-03  -61.347
    68    2   0.0559   0.0000   0.1133  0.00429   8.6689E-04 -1.5890E-03  1.8101E-03  -61.386
    69    2   0.0591   0.0000   0.1104  0.00429   8.4816E-04 -1.5572E-03  1.7732E-03  -61.424
    70    2   0.0623   0.0000   0.1076  0.00429   8.2882E-04 -1.5242E-03  1.7349E-03  -61.463
    71    2   0.0655   0.0000   0.1047  0.00429   8.0890E-04 -1.4899E-03  1.6953E-03  -61.501
    72    2   0.0687   0.0000   0.1019  0.00429   7.8840E-04 -1.4544E-03  1.6544E-03  -61.540
    73    2   0.0719   0.0000   0.0990  0.00429   7.6733E-04 -1.4178E-03  1.6122E-03  -61.578
    74    2   0.0751   0.0000   0.0961  0.00429   7.4571E-04 -1.3801E-03  1.5686E-03  -61.616
    75    2   0.0783   0.0000   0.0933  0.00429   7.2355E-04 -1.3412E-03  1.5239E-03  -61.653
    76    2   0.0815   0.0000   0.0904  0.00429   7.0085E-04 -1.3011E-03  1.4779E-03  -61.691
    77    2   0.0847   0.0000   0.0876  0.00429   6.7764E-04 -1.2600E-03  1.4307E-03  -61.729
    78    2   0.0879   0.0000   0.0847  0.00429   6.5393E-04 -1.2179E-03  1.3823E-03  -61.766
    79    2   0.0911   0.0000   0.0819  0.00429   6.2972E-04 -1.1746E-03  1.3328E-03  -61.804
    80    2   0.0943   0.0000   0.0790  0.00429   6.0503E-04 -1.1303E-03  1.2821E-03  -61.841
    81    2   0.0975   0.0000   0.0761  0.00429   5.7988E-04 -1.0850E-03  1.2303E-03  -61.878
    82    2   0.1006   0.0000   0.0733  0.00429   5.5427E-04 -1.0387E-03  1.1774E-03  -61.916
    83    2   0.1038   0.0000   0.0704  0.00429   5.2822E-04 -9.9148E-04  1.1234E-03  -61.953
    84    2   0.1070   0.0000   0.0676  0.00429   5.0174E-04 -9.4325E-04  1.0684E-03  -61.990
    85    2   0.1102   0.0000   0.0647  0.00429   4.7484E-04 -8.9407E-04  1.0123E-03  -62.027
    86    2   0.1134   0.0000   0.0619  0.00429   4.4753E-04 -8.4397E-04  9.5528E-04  -62.065
    87    2   0.1166   0.0000   0.0590  0.00429   4.1982E-04 -7.9296E-04  8.9723E-04  -62.102
    88    2   0.1198   0.0000   0.0561  0.00429   3.9172E-04 -7.4104E-04  8.3820E-04  -62.139
    89    2   0.1230   0.0000   0.0533  0.00429   3.6323E-04 -6.8824E-04  7.7821E-04  -62.176
    90    2   0.1262   0.0000   0.0504  0.00429   3.3437E-04 -6.3455E-04  7.1726E-04  -62.213
    91    2   0.1294   0.0000   0.0476  0.00429   3.0514E-04 -5.7999E-04  6.5536E-04  -62.251
    92    2   0.1326   0.0000   0.0447  0.00429   2.7553E-04 -5.2453E-04  5.9250E-04  -62.288
    93    2   0.1358   0.0000   0.0418  0.00429   2.4554E-04 -4.6818E-04  5.2866E-04  -62.325
    94    2   0.1390   0.0000   0.0390  0.00429   2.1516E-04 -4.1090E-04  4.6382E-04  -62.362
    95    2   0.1422   0.0000   0.0361  0.00429   1.8436E-04 -3.5264E-04  3.9792E-04  -62.399
    96    2   0.1454   0.0000   0.0333  0.00429   1.5310E-04 -2.9332E-04  3.3087E-04  -62.436
    97    2   0.1486   0.0000   0.0304  0.00429   1.2132E-04 -2.3280E-04  2.6251E-04  -62.474
    98    2   0.1518   0.0000   0.0276  0.00429   8.8879E-05 -1.7081E-04  1.9255E-04  -62.511
    99    2   0.1550   0.0000   0.0247  0.00429   5.5485E-05 -1.0680E-04  1.2036E-04  -62.548
   100    2   0.1582   0.0000   0.0218  0.00429   1.9974E-05 -3.8508E-05  4.3380E-05  -62.585
   101    3  -0.1598   0.0000   0.0184  0.00408  -5.1615E-04  6.6599E-04  8.4259E-04  127.776
   102    3  -0.1598   0.0000   0.0143  0.00408  -4.8375E-04  6.6349E-04  8.2112E-04  126.096
   103    3  -0.1598   0.0000   0.0102  0.00408  -4.5048E-04  6.5806E-04  7.9748E-04  124.394
   104    3  -0.1598   0.0000   0.0061  0.00408  -4.1564E-04  6.4994E-04  7.7148E-04  122.599
   105    3  -0.1598   0.0000   0.0020  0.00408  -3.8335E-04  6.4072E-04  7.4665E-04  120.893



                                        - - - POWER BUDGET - - -

                                           INPUT POWER   = 2.8633E-04 WATTS
                                           RADIATED POWER= 2.8633E-04 WATTS
                                           STRUCTURE LOSS= 0.0000E+00 WATTS
                                           NETWORK LOSS  = 0.0000E+00 WATTS
                                           EFFICIENCY    = 100.00 PERCENT




                                 - - - - - - FREQUENCY - - - - - -

                                    FREQUENCY= 3.0900E+00 MHZ
                                    WAVELENGTH= 9.7023E+01 METERS




                    APPROXIMATE INTEGRATION EMPLOYED FOR SEGMENTS MORE THAN   1.000 WAVELENGTHS APART

                    THE EXTENDED THIN WIRE KERNEL WILL BE USED



                               - - - STRUCTURE IMPEDANCE LOADING - - -


       LOCATION          RESISTANCE   INDUCTANCE  CAPACITANCE       IMPEDANCE (OHMS)     CONDUCTIVITY    TYPE
    ITAG FROM THRU          OHMS        HENRYS       FARADS        REAL      IMAGINARY    MHOS/METER

       1    5    5                   1.5000E-06                                                        SERIES 



                                  - - - ANTENNA ENVIRONMENT - - -

                                        FINITE GROUND.  SOMMERFELD SOLUTION
                                        RELATIVE DIELECTRIC CONST.= 13.000
                                        CONDUCTIVITY= 2.000E-03 MHOS/METER
                                        COMPLEX DIELECTRIC CONSTANT= 1.30000E+01-1.16350E+01



                                - - - MATRIX TIMING - - -

                        FILL=    0.063 SEC.,  FACTOR=    0.000 SEC.



                                          - - - ANTENNA INPUT PARAMETERS - - -

   TAG   SEG.    VOLTAGE (VOLTS)         CURRENT (AMPS)         IMPEDANCE (OHMS)        ADMITTANCE (MHOS)      POWER
   NO.   NO.    REAL        IMAG.       REAL        IMAG.       REAL        IMAG.       REAL        IMAG.     (WATTS)
     1     2 1.00000E+00 0.00000E+00 5.09633E-04-6.22931E-04 7.86752E+02 9.61656E+02 5.09633E-04-6.22931E-04 2.54817E-04



                             - - - CURRENTS AND LOCATION - - -

                                 DISTANCES IN WAVELENGTHS


  SEG.  TAG    COORD. OF SEG. CENTER     SEG.            - - - CURRENT (AMPS) - - -
  NO.   NO.     X        Y        Z      LENGTH     REAL        IMAG.       MAG.        PHASE
     1    1  -0.1597   0.0000   0.0221  0.00433   4.8506E-04 -6.2015E-04  7.8732E-04  -51.969
     2    1  -0.1565   0.0000   0.0249  0.00433   5.0963E-04 -6.2293E-04  8.0484E-04  -50.713
     3    1  -0.1533   0.0000   0.0278  0.00433   5.3401E-04 -6.8100E-04  8.6540E-04  -51.898
     4    1  -0.1500   0.0000   0.0307  0.00433   5.5800E-04 -7.4307E-04  9.2926E-04  -53.095
     5    1  -0.1468   0.0000   0.0336  0.00433   5.8146E-04 -8.0174E-04  9.9039E-04  -54.048
     6    1  -0.1436   0.0000   0.0365  0.00433   6.0348E-04 -8.5699E-04  1.0482E-03  -54.847
     7    1  -0.1404   0.0000   0.0394  0.00433   6.2493E-04 -9.1041E-04  1.1043E-03  -55.533
     8    1  -0.1371   0.0000   0.0423  0.00433   6.4591E-04 -9.6238E-04  1.1590E-03  -56.132
     9    1  -0.1339   0.0000   0.0451  0.00433   6.6640E-04 -1.0130E-03  1.2125E-03  -56.660
    10    1  -0.1307   0.0000   0.0480  0.00433   6.8639E-04 -1.0622E-03  1.2647E-03  -57.130
    11    1  -0.1274   0.0000   0.0509  0.00433   7.0585E-04 -1.1102E-03  1.3156E-03  -57.552
    12    1  -0.1242   0.0000   0.0538  0.00433   7.2479E-04 -1.1569E-03  1.3652E-03  -57.933
    13    1  -0.1210   0.0000   0.0567  0.00433   7.4319E-04 -1.2024E-03  1.4135E-03  -58.279
    14    1  -0.1178   0.0000   0.0596  0.00433   7.6105E-04 -1.2465E-03  1.4605E-03  -58.595
    15    1  -0.1145   0.0000   0.0625  0.00433   7.7836E-04 -1.2895E-03  1.5062E-03  -58.884
    16    1  -0.1113   0.0000   0.0653  0.00433   7.9511E-04 -1.3312E-03  1.5506E-03  -59.150
    17    1  -0.1081   0.0000   0.0682  0.00433   8.1128E-04 -1.3716E-03  1.5936E-03  -59.396
    18    1  -0.1049   0.0000   0.0711  0.00433   8.2689E-04 -1.4107E-03  1.6352E-03  -59.624
    19    1  -0.1016   0.0000   0.0740  0.00433   8.4191E-04 -1.4486E-03  1.6755E-03  -59.836
    20    1  -0.0984   0.0000   0.0769  0.00433   8.5633E-04 -1.4852E-03  1.7144E-03  -60.033
    21    1  -0.0952   0.0000   0.0798  0.00433   8.7017E-04 -1.5205E-03  1.7518E-03  -60.217
    22    1  -0.0920   0.0000   0.0827  0.00433   8.8339E-04 -1.5544E-03  1.7879E-03  -60.390
    23    1  -0.0887   0.0000   0.0855  0.00433   8.9601E-04 -1.5870E-03  1.8225E-03  -60.552
    24    1  -0.0855   0.0000   0.0884  0.00433   9.0800E-04 -1.6183E-03  1.8556E-03  -60.704
    25    1  -0.0823   0.0000   0.0913  0.00433   9.1937E-04 -1.6483E-03  1.8873E-03  -60.848
    26    1  -0.0791   0.0000   0.0942  0.00433   9.3011E-04 -1.6768E-03  1.9175E-03  -60.984
    27    1  -0.0758   0.0000   0.0971  0.00433   9.4022E-04 -1.7040E-03  1.9462E-03  -61.112
    28    1  -0.0726   0.0000   0.1000  0.00433   9.4968E-04 -1.7299E-03  1.9734E-03  -61.233
    29    1  -0.0694   0.0000   0.1029  0.00433   9.5850E-04 -1.7543E-03  1.9991E-03  -61.349
    30    1  -0.0661   0.0000   0.1057  0.00433   9.6667E-04 -1.7773E-03  2.0232E-03  -61.458
    31    1  -0.0629   0.0000   0.1086  0.00433   9.7419E-04 -1.7989E-03  2.0458E-03  -61.563
    32    1  -0.0597   0.0000   0.1115  0.00433   9.8104E-04 -1.8191E-03  2.0668E-03  -61.662
    33    1  -0.0565   0.0000   0.1144  0.00433   9.8724E-04 -1.8379E-03  2.0862E-03  -61.757
    34    1  -0.0532   0.0000   0.1173  0.00433   9.9277E-04 -1.8552E-03  2.1041E-03  -61.848
    35    1  -0.0500   0.0000   0.1202  0.00433   9.9763E-04 -1.8711E-03  2.1204E-03  -61.934
    36    1  -0.0468   0.0000   0.1231  0.00433   1.0018E-03 -1.8855E-03  2.1352E-03  -62.017
    37    1  -0.0436   0.0000   0.1259  0.00433   1.0054E-03 -1.8985E-03  2.1483E-03  -62.097
    38    1  -0.0403   0.0000   0.1288  0.00433   1.0082E-03 -1.9101E-03  2.1598E-03  -62.173
    39    1  -0.0371   0.0000   0.1317  0.00433   1.0104E-03 -1.9202E-03  2.1698E-03  -62.247
    40    1  -0.0339   0.0000   0.1346  0.00433   1.0119E-03 -1.9288E-03  2.1781E-03  -62.317
    41    1  -0.0307   0.0000   0.1375  0.00433   1.0127E-03 -1.9360E-03  2.1849E-03  -62.385
    42    1  -0.0274   0.0000   0.1404  0.00433   1.0129E-03 -1.9417E-03  2.1900E-03  -62.451
    43    1  -0.0242   0.0000   0.1433  0.00433   1.0124E-03 -1.9459E-03  2.1935E-03  -62.514
    44    1  -0.0210   0.0000   0.1462  0.00433   1.0112E-03 -1.9487E-03  2.1955E-03  -62.575
    45    1  -0.0177   0.0000   0.1490  0.00433   1.0094E-03 -1.9501E-03  2.1958E-03  -62.633
    46    1  -0.0145   0.0000   0.1519  0.00433   1.0069E-03 -1.9500E-03  2.1946E-03  -62.690
    47    1  -0.0113   0.0000   0.1548  0.00433   1.0037E-03 -1.9484E-03  2.1918E-03  -62.745
    48    1  -0.0081   0.0000   0.1577  0.00433   9.9991E-04 -1.9454E-03  2.1873E-03  -62.798
    49    1  -0.0048   0.0000   0.1606  0.00433   9.9544E-04 -1.9410E-03  2.1814E-03  -62.849
    50    1  -0.0016   0.0000   0.1635  0.00433   9.9033E-04 -1.9352E-03  2.1738E-03  -62.898
    51    2   0.0016   0.0000   0.1635  0.00433   9.8459E-04 -1.9279E-03  2.1648E-03  -62.946
    52    2   0.0048   0.0000   0.1606  0.00433   9.7818E-04 -1.9192E-03  2.1541E-03  -62.993
    53    2   0.0081   0.0000   0.1577  0.00433   9.7110E-04 -1.9091E-03  2.1419E-03  -63.039
    54    2   0.0113   0.0000   0.1548  0.00433   9.6335E-04 -1.8976E-03  2.1281E-03  -63.085
    55    2   0.0145   0.0000   0.1519  0.00433   9.5494E-04 -1.8847E-03  2.1128E-03  -63.130
    56    2   0.0177   0.0000   0.1490  0.00433   9.4587E-04 -1.8704E-03  2.0960E-03  -63.174
    57    2   0.0210   0.0000   0.1462  0.00433   9.3614E-04 -1.8547E-03  2.0776E-03  -63.218
    58    2   0.0242   0.0000   0.1433  0.00433   9.2577E-04 -1.8376E-03  2.0576E-03  -63.261
    59    2   0.0274   0.0000   0.1404  0.00433   9.1475E-04 -1.8191E-03  2.0362E-03  -63.304
    60    2   0.0307   0.0000   0.1375  0.00433   9.0310E-04 -1.7993E-03  2.0132E-03  -63.347
    61    2   0.0339   0.0000   0.1346  0.00433   8.9082E-04 -1.7781E-03  1.9887E-03  -63.389
    62    2   0.0371   0.0000   0.1317  0.00433   8.7792E-04 -1.7555E-03  1.9628E-03  -63.431
    63    2   0.0403   0.0000   0.1288  0.00433   8.6440E-04 -1.7316E-03  1.9354E-03  -63.472
    64    2   0.0436   0.0000   0.1259  0.00433   8.5027E-04 -1.7064E-03  1.9065E-03  -63.513
    65    2   0.0468   0.0000   0.1231  0.00433   8.3555E-04 -1.6798E-03  1.8762E-03  -63.554
    66    2   0.0500   0.0000   0.1202  0.00433   8.2024E-04 -1.6520E-03  1.8444E-03  -63.595
    67    2   0.0532   0.0000   0.1173  0.00433   8.0435E-04 -1.6228E-03  1.8112E-03  -63.635
    68    2   0.0565   0.0000   0.1144  0.00433   7.8788E-04 -1.5924E-03  1.7767E-03  -63.675
    69    2   0.0597   0.0000   0.1115  0.00433   7.7086E-04 -1.5607E-03  1.7407E-03  -63.715
    70    2   0.0629   0.0000   0.1086  0.00433   7.5329E-04 -1.5278E-03  1.7034E-03  -63.754
    71    2   0.0661   0.0000   0.1057  0.00433   7.3518E-04 -1.4937E-03  1.6648E-03  -63.794
    72    2   0.0694   0.0000   0.1029  0.00433   7.1654E-04 -1.4583E-03  1.6248E-03  -63.833
    73    2   0.0726   0.0000   0.1000  0.00433   6.9738E-04 -1.4218E-03  1.5836E-03  -63.872
    74    2   0.0758   0.0000   0.0971  0.00433   6.7771E-04 -1.3840E-03  1.5411E-03  -63.911
    75    2   0.0791   0.0000   0.0942  0.00433   6.5755E-04 -1.3452E-03  1.4973E-03  -63.950
    76    2   0.0823   0.0000   0.0913  0.00433   6.3691E-04 -1.3052E-03  1.4523E-03  -63.988
    77    2   0.0855   0.0000   0.0884  0.00433   6.1579E-04 -1.2641E-03  1.4061E-03  -64.027
    78    2   0.0887   0.0000   0.0855  0.00433   5.9422E-04 -1.2219E-03  1.3587E-03  -64.065
    79    2   0.0920   0.0000   0.0827  0.00433   5.7219E-04 -1.1786E-03  1.3101E-03  -64.104
    80    2   0.0952   0.0000   0.0798  0.00433   5.4973E-04 -1.1342E-03  1.2604E-03  -64.142
    81    2   0.0984   0.0000   0.0769  0.00433   5.2684E-04 -1.0889E-03  1.2096E-03  -64.180
    82    2   0.1016   0.0000   0.0740  0.00433   5.0355E-04 -1.0425E-03  1.1577E-03  -64.218
    83    2   0.1049   0.0000   0.0711  0.00433   4.7984E-04 -9.9509E-04  1.1047E-03  -64.256
    84    2   0.1081   0.0000   0.0682  0.00433   4.5575E-04 -9.4674E-04  1.0507E-03  -64.294
    85    2   0.1113   0.0000   0.0653  0.00433   4.3128E-04 -8.9743E-04  9.9568E-04  -64.332
    86    2   0.1145   0.0000   0.0625  0.00433   4.0644E-04 -8.4718E-04  9.3963E-04  -64.370
    87    2   0.1178   0.0000   0.0596  0.00433   3.8124E-04 -7.9600E-04  8.8259E-04  -64.408
    88    2   0.1210   0.0000   0.0567  0.00433   3.5569E-04 -7.4392E-04  8.2458E-04  -64.446
    89    2   0.1242   0.0000   0.0538  0.00433   3.2980E-04 -6.9093E-04  7.6560E-04  -64.484
    90    2   0.1274   0.0000   0.0509  0.00433   3.0356E-04 -6.3705E-04  7.0568E-04  -64.522
    91    2   0.1307   0.0000   0.0480  0.00433   2.7699E-04 -5.8228E-04  6.4481E-04  -64.560
    92    2   0.1339   0.0000   0.0451  0.00433   2.5008E-04 -5.2662E-04  5.8298E-04  -64.598
    93    2   0.1371   0.0000   0.0423  0.00433   2.2284E-04 -4.7004E-04  5.2019E-04  -64.636
    94    2   0.1404   0.0000   0.0394  0.00433   1.9524E-04 -4.1253E-04  4.5640E-04  -64.673
    95    2   0.1436   0.0000   0.0365  0.00433   1.6727E-04 -3.5404E-04  3.9157E-04  -64.711
    96    2   0.1468   0.0000   0.0336  0.00433   1.3889E-04 -2.9449E-04  3.2560E-04  -64.749
    97    2   0.1500   0.0000   0.0307  0.00433   1.1005E-04 -2.3372E-04  2.5833E-04  -64.787
    98    2   0.1533   0.0000   0.0278  0.00433   8.0606E-05 -1.7149E-04  1.8949E-04  -64.825
    99    2   0.1565   0.0000   0.0249  0.00433   5.0313E-05 -1.0722E-04  1.1844E-04  -64.863
   100    2   0.1597   0.0000   0.0221  0.00433   1.8109E-05 -3.8659E-05  4.2690E-05  -64.900
   101    3  -0.1613   0.0000   0.0186  0.00412  -4.5798E-04  6.2139E-04  7.7192E-04  126.391
   102    3  -0.1613   0.0000   0.0144  0.00412  -4.2839E-04  6.1882E-04  7.5263E-04  124.694
   103    3  -0.1613   0.0000   0.0103  0.00412  -3.9802E-04  6.1332E-04  7.3115E-04  122.982
   104    3  -0.1613   0.0000   0.0062  0.00412  -3.6625E-04  6.0516E-04  7.0736E-04  121.183
   105    3  -0.1613   0.0000   0.0021  0.00412  -3.3682E-04  5.9593E-04  6.8453E-04  119.475



                                        - - - POWER BUDGET - - -

                                           INPUT POWER   = 2.5482E-04 WATTS
                                           RADIATED POWER= 2.5482E-04 WATTS
                                           STRUCTURE LOSS= 0.0000E+00 WATTS
                                           NETWORK LOSS  = 0.0000E+00 WATTS
                                           EFFICIENCY    = 100.00 PERCENT




                                 - - - - - - FREQUENCY - - - - - -

                                    FREQUENCY= 3.1200E+00 MHZ
                                    WAVELENGTH= 9.6090E+01 METERS




                    APPROXIMATE INTEGRATION EMPLOYED FOR SEGMENTS MORE THAN   1.000 WAVELENGTHS APART

                    THE EXTENDED THIN WIRE KERNEL WILL BE USED



                               - - - STRUCTURE IMPEDANCE LOADING - - -


       LOCATION          RESISTANCE   INDUCTANCE  CAPACITANCE       IMPEDANCE (OHMS)     CONDUCTIVITY    TYPE
    ITAG FROM THRU          OHMS        HENRYS       FARADS        REAL      IMAGINARY    MHOS/METER

       1    5    5                   1.5000E-06                                                        SERIES 



                                  - - - ANTENNA ENVIRONMENT - - -

                                        FINITE GROUND.  SOMMERFELD SOLUTION
                                        RELATIVE DIELECTRIC CONST.= 13.000
                                        CONDUCTIVITY= 2.000E-03 MHOS/METER
                                        COMPLEX DIELECTRIC CONSTANT= 1.30000E+01-1.15231E+01



                                - - - MATRIX TIMING - - -

                        FILL=    0.047 SEC.,  FACTOR=    0.000 SEC.



                                          - - - ANTENNA INPUT PARAMETERS - - -

   TAG   SEG.    VOLTAGE (VOLTS)         CURRENT (AMPS)         IMPEDANCE (OHMS)        ADMITTANCE (MHOS)      POWER
   NO.   NO.    REAL        IMAG.       REAL        IMAG.       REAL        IMAG.       REAL        IMAG.     (WATTS)
     1     2 1.00000E+00 0.00000E+00 4.53605E-04-5.75950E-04 8.43955E+02 1.07158E+03 4.53605E-04-5.75950E-04 2.26803E-04



                             - - - CURRENTS AND LOCATION - - -

                                 DISTANCES IN WAVELENGTHS


  SEG.  TAG    COORD. OF SEG. CENTER     SEG.            - - - CURRENT (AMPS) - - -
  NO.   NO.     X        Y        Z      LENGTH     REAL        IMAG.       MAG.        PHASE
     1    1  -0.1613   0.0000   0.0223  0.00437   4.3122E-04 -5.7324E-04  7.1733E-04  -53.048
     2    1  -0.1580   0.0000   0.0252  0.00437   4.5361E-04 -5.7595E-04  7.3313E-04  -51.777
     3    1  -0.1547   0.0000   0.0281  0.00437   4.7582E-04 -6.3452E-04  7.9311E-04  -53.134
     4    1  -0.1515   0.0000   0.0310  0.00437   4.9770E-04 -6.9717E-04  8.5659E-04  -54.478
     5    1  -0.1482   0.0000   0.0339  0.00437   5.1909E-04 -7.5642E-04  9.1741E-04  -55.540
     6    1  -0.1450   0.0000   0.0368  0.00437   5.3919E-04 -8.1232E-04  9.7499E-04  -56.425
     7    1  -0.1417   0.0000   0.0398  0.00437   5.5878E-04 -8.6642E-04  1.0310E-03  -57.181
     8    1  -0.1385   0.0000   0.0427  0.00437   5.7795E-04 -9.1907E-04  1.0857E-03  -57.837
     9    1  -0.1352   0.0000   0.0456  0.00437   5.9668E-04 -9.7036E-04  1.1391E-03  -58.412
    10    1  -0.1319   0.0000   0.0485  0.00437   6.1496E-04 -1.0203E-03  1.1913E-03  -58.923
    11    1  -0.1287   0.0000   0.0514  0.00437   6.3277E-04 -1.0691E-03  1.2423E-03  -59.379
    12    1  -0.1254   0.0000   0.0543  0.00437   6.5011E-04 -1.1165E-03  1.2920E-03  -59.789
    13    1  -0.1222   0.0000   0.0572  0.00437   6.6697E-04 -1.1627E-03  1.3405E-03  -60.160
    14    1  -0.1189   0.0000   0.0602  0.00437   6.8334E-04 -1.2077E-03  1.3876E-03  -60.498
    15    1  -0.1157   0.0000   0.0631  0.00437   6.9921E-04 -1.2515E-03  1.4335E-03  -60.807
    16    1  -0.1124   0.0000   0.0660  0.00437   7.1458E-04 -1.2939E-03  1.4781E-03  -61.090
    17    1  -0.1091   0.0000   0.0689  0.00437   7.2944E-04 -1.3352E-03  1.5214E-03  -61.351
    18    1  -0.1059   0.0000   0.0718  0.00437   7.4377E-04 -1.3752E-03  1.5634E-03  -61.593
    19    1  -0.1026   0.0000   0.0747  0.00437   7.5758E-04 -1.4139E-03  1.6040E-03  -61.817
    20    1  -0.0994   0.0000   0.0776  0.00437   7.7085E-04 -1.4513E-03  1.6433E-03  -62.025
    21    1  -0.0961   0.0000   0.0805  0.00437   7.8358E-04 -1.4874E-03  1.6812E-03  -62.219
    22    1  -0.0928   0.0000   0.0835  0.00437   7.9577E-04 -1.5222E-03  1.7177E-03  -62.401
    23    1  -0.0896   0.0000   0.0864  0.00437   8.0740E-04 -1.5557E-03  1.7527E-03  -62.571
    24    1  -0.0863   0.0000   0.0893  0.00437   8.1847E-04 -1.5878E-03  1.7864E-03  -62.731
    25    1  -0.0831   0.0000   0.0922  0.00437   8.2897E-04 -1.6186E-03  1.8186E-03  -62.881
    26    1  -0.0798   0.0000   0.0951  0.00437   8.3890E-04 -1.6481E-03  1.8493E-03  -63.023
    27    1  -0.0766   0.0000   0.0980  0.00437   8.4825E-04 -1.6761E-03  1.8786E-03  -63.157
    28    1  -0.0733   0.0000   0.1009  0.00437   8.5702E-04 -1.7028E-03  1.9063E-03  -63.284
    29    1  -0.0700   0.0000   0.1039  0.00437   8.6521E-04 -1.7281E-03  1.9326E-03  -63.404
    30    1  -0.0668   0.0000   0.1068  0.00437   8.7280E-04 -1.7520E-03  1.9573E-03  -63.519
    31    1  -0.0635   0.0000   0.1097  0.00437   8.7979E-04 -1.7744E-03  1.9806E-03  -63.627
    32    1  -0.0603   0.0000   0.1126  0.00437   8.8619E-04 -1.7955E-03  2.0023E-03  -63.731
    33    1  -0.0570   0.0000   0.1155  0.00437   8.9198E-04 -1.8151E-03  2.0224E-03  -63.829
    34    1  -0.0538   0.0000   0.1184  0.00437   8.9716E-04 -1.8333E-03  2.0410E-03  -63.924
    35    1  -0.0505   0.0000   0.1213  0.00437   9.0174E-04 -1.8500E-03  2.0580E-03  -64.014
    36    1  -0.0472   0.0000   0.1243  0.00437   9.0571E-04 -1.8652E-03  2.0735E-03  -64.100
    37    1  -0.0440   0.0000   0.1272  0.00437   9.0907E-04 -1.8790E-03  2.0874E-03  -64.183
    38    1  -0.0407   0.0000   0.1301  0.00437   9.1181E-04 -1.8914E-03  2.0997E-03  -64.262
    39    1  -0.0375   0.0000   0.1330  0.00437   9.1394E-04 -1.9023E-03  2.1104E-03  -64.338
    40    1  -0.0342   0.0000   0.1359  0.00437   9.1545E-04 -1.9117E-03  2.1196E-03  -64.411
    41    1  -0.0309   0.0000   0.1388  0.00437   9.1635E-04 -1.9196E-03  2.1271E-03  -64.482
    42    1  -0.0277   0.0000   0.1417  0.00437   9.1664E-04 -1.9261E-03  2.1331E-03  -64.550
    43    1  -0.0244   0.0000   0.1447  0.00437   9.1631E-04 -1.9310E-03  2.1374E-03  -64.615
    44    1  -0.0212   0.0000   0.1476  0.00437   9.1537E-04 -1.9346E-03  2.1402E-03  -64.678
    45    1  -0.0179   0.0000   0.1505  0.00437   9.1383E-04 -1.9366E-03  2.1414E-03  -64.739
    46    1  -0.0147   0.0000   0.1534  0.00437   9.1167E-04 -1.9372E-03  2.1410E-03  -64.798
    47    1  -0.0114   0.0000   0.1563  0.00437   9.0891E-04 -1.9363E-03  2.1390E-03  -64.855
    48    1  -0.0081   0.0000   0.1592  0.00437   9.0556E-04 -1.9340E-03  2.1355E-03  -64.910
    49    1  -0.0049   0.0000   0.1621  0.00437   9.0160E-04 -1.9302E-03  2.1304E-03  -64.963
    50    1  -0.0016   0.0000   0.1651  0.00437   8.9706E-04 -1.9250E-03  2.1238E-03  -65.014
    51    2   0.0016   0.0000   0.1651  0.00437   8.9194E-04 -1.9183E-03  2.1156E-03  -65.064
    52    2   0.0049   0.0000   0.1621  0.00437   8.8621E-04 -1.9103E-03  2.1058E-03  -65.112
    53    2   0.0081   0.0000   0.1592  0.00437   8.7986E-04 -1.9007E-03  2.0945E-03  -65.160
    54    2   0.0114   0.0000   0.1563  0.00437   8.7291E-04 -1.8898E-03  2.0817E-03  -65.207
    55    2   0.0147   0.0000   0.1534  0.00437   8.6534E-04 -1.8774E-03  2.0672E-03  -65.254
    56    2   0.0179   0.0000   0.1505  0.00437   8.5718E-04 -1.8636E-03  2.0513E-03  -65.300
    57    2   0.0212   0.0000   0.1476  0.00437   8.4841E-04 -1.8484E-03  2.0338E-03  -65.345
    58    2   0.0244   0.0000   0.1447  0.00437   8.3905E-04 -1.8318E-03  2.0148E-03  -65.390
    59    2   0.0277   0.0000   0.1417  0.00437   8.2910E-04 -1.8138E-03  1.9943E-03  -65.435
    60    2   0.0309   0.0000   0.1388  0.00437   8.1857E-04 -1.7944E-03  1.9723E-03  -65.479
    61    2   0.0342   0.0000   0.1359  0.00437   8.0746E-04 -1.7736E-03  1.9488E-03  -65.522
    62    2   0.0375   0.0000   0.1330  0.00437   7.9578E-04 -1.7515E-03  1.9238E-03  -65.565
    63    2   0.0407   0.0000   0.1301  0.00437   7.8354E-04 -1.7279E-03  1.8973E-03  -65.608
    64    2   0.0440   0.0000   0.1272  0.00437   7.7075E-04 -1.7031E-03  1.8694E-03  -65.650
    65    2   0.0472   0.0000   0.1243  0.00437   7.5741E-04 -1.6769E-03  1.8400E-03  -65.692
    66    2   0.0505   0.0000   0.1213  0.00437   7.4353E-04 -1.6493E-03  1.8092E-03  -65.734
    67    2   0.0538   0.0000   0.1184  0.00437   7.2912E-04 -1.6205E-03  1.7770E-03  -65.775
    68    2   0.0570   0.0000   0.1155  0.00437   7.1420E-04 -1.5904E-03  1.7434E-03  -65.816
    69    2   0.0603   0.0000   0.1126  0.00437   6.9876E-04 -1.5590E-03  1.7084E-03  -65.857
    70    2   0.0635   0.0000   0.1097  0.00437   6.8281E-04 -1.5263E-03  1.6721E-03  -65.898
    71    2   0.0668   0.0000   0.1068  0.00437   6.6638E-04 -1.4924E-03  1.6344E-03  -65.938
    72    2   0.0700   0.0000   0.1039  0.00437   6.4946E-04 -1.4573E-03  1.5954E-03  -65.979
    73    2   0.0733   0.0000   0.1009  0.00437   6.3208E-04 -1.4209E-03  1.5552E-03  -66.019
    74    2   0.0766   0.0000   0.0980  0.00437   6.1423E-04 -1.3834E-03  1.5136E-03  -66.059
    75    2   0.0798   0.0000   0.0951  0.00437   5.9593E-04 -1.3447E-03  1.4708E-03  -66.098
    76    2   0.0831   0.0000   0.0922  0.00437   5.7719E-04 -1.3048E-03  1.4268E-03  -66.138
    77    2   0.0863   0.0000   0.0893  0.00437   5.5802E-04 -1.2638E-03  1.3816E-03  -66.177
    78    2   0.0896   0.0000   0.0864  0.00437   5.3844E-04 -1.2218E-03  1.3351E-03  -66.217
    79    2   0.0928   0.0000   0.0835  0.00437   5.1844E-04 -1.1786E-03  1.2876E-03  -66.256
    80    2   0.0961   0.0000   0.0805  0.00437   4.9806E-04 -1.1343E-03  1.2389E-03  -66.295
    81    2   0.0994   0.0000   0.0776  0.00437   4.7729E-04 -1.0890E-03  1.1890E-03  -66.334
    82    2   0.1026   0.0000   0.0747  0.00437   4.5614E-04 -1.0427E-03  1.1381E-03  -66.373
    83    2   0.1059   0.0000   0.0718  0.00437   4.3463E-04 -9.9540E-04  1.0862E-03  -66.412
    84    2   0.1091   0.0000   0.0689  0.00437   4.1277E-04 -9.4709E-04  1.0331E-03  -66.451
    85    2   0.1124   0.0000   0.0660  0.00437   3.9057E-04 -8.9781E-04  9.7908E-04  -66.489
    86    2   0.1157   0.0000   0.0631  0.00437   3.6804E-04 -8.4757E-04  9.2403E-04  -66.528
    87    2   0.1189   0.0000   0.0602  0.00437   3.4518E-04 -7.9641E-04  8.6800E-04  -66.567
    88    2   0.1222   0.0000   0.0572  0.00437   3.2201E-04 -7.4433E-04  8.1099E-04  -66.606
    89    2   0.1254   0.0000   0.0543  0.00437   2.9853E-04 -6.9133E-04  7.5304E-04  -66.644
    90    2   0.1287   0.0000   0.0514  0.00437   2.7475E-04 -6.3744E-04  6.9413E-04  -66.683
    91    2   0.1319   0.0000   0.0485  0.00437   2.5067E-04 -5.8265E-04  6.3428E-04  -66.722
    92    2   0.1352   0.0000   0.0456  0.00437   2.2629E-04 -5.2696E-04  5.7349E-04  -66.760
    93    2   0.1385   0.0000   0.0427  0.00437   2.0161E-04 -4.7036E-04  5.1174E-04  -66.799
    94    2   0.1417   0.0000   0.0398  0.00437   1.7661E-04 -4.1281E-04  4.4900E-04  -66.837
    95    2   0.1450   0.0000   0.0368  0.00437   1.5129E-04 -3.5428E-04  3.8523E-04  -66.876
    96    2   0.1482   0.0000   0.0339  0.00437   1.2560E-04 -2.9468E-04  3.2033E-04  -66.915
    97    2   0.1515   0.0000   0.0310  0.00437   9.9500E-05 -2.3388E-04  2.5416E-04  -66.953
    98    2   0.1547   0.0000   0.0281  0.00437   7.2870E-05 -1.7160E-04  1.8643E-04  -66.992
    99    2   0.1580   0.0000   0.0252  0.00437   4.5476E-05 -1.0729E-04  1.1653E-04  -67.030
   100    2   0.1613   0.0000   0.0223  0.00437   1.6365E-05 -3.8682E-05  4.2002E-05  -67.068
   101    3  -0.1629   0.0000   0.0187  0.00416  -4.0657E-04  5.7463E-04  7.0392E-04  125.280
   102    3  -0.1629   0.0000   0.0146  0.00416  -3.7964E-04  5.7224E-04  6.8672E-04  123.561
   103    3  -0.1629   0.0000   0.0104  0.00416  -3.5203E-04  5.6694E-04  6.6734E-04  121.837
   104    3  -0.1629   0.0000   0.0062  0.00416  -3.2315E-04  5.5901E-04  6.4569E-04  120.032
   105    3  -0.1629   0.0000   0.0021  0.00416  -2.9643E-04  5.5001E-04  6.2480E-04  118.322



                                        - - - POWER BUDGET - - -

                                           INPUT POWER   = 2.2680E-04 WATTS
                                           RADIATED POWER= 2.2680E-04 WATTS
                                           STRUCTURE LOSS= 0.0000E+00 WATTS
                                           NETWORK LOSS  = 0.0000E+00 WATTS
                                           EFFICIENCY    = 100.00 PERCENT




                                 - - - - - - FREQUENCY - - - - - -

                                    FREQUENCY= 3.1500E+00 MHZ
                                    WAVELENGTH= 9.5175E+01 METERS




                    APPROXIMATE INTEGRATION EMPLOYED FOR SEGMENTS MORE THAN   1.000 WAVELENGTHS APART

                    THE EXTENDED THIN WIRE KERNEL WILL BE USED



                               - - - STRUCTURE IMPEDANCE LOADING - - -


       LOCATION          RESISTANCE   INDUCTANCE  CAPACITANCE       IMPEDANCE (OHMS)     CONDUCTIVITY    TYPE
    ITAG FROM THRU          OHMS        HENRYS       FARADS        REAL      IMAGINARY    MHOS/METER

       1    5    5                   1.5000E-06                                                        SERIES 



                                  - - - ANTENNA ENVIRONMENT - - -

                                        FINITE GROUND.  SOMMERFELD SOLUTION
                                        RELATIVE DIELECTRIC CONST.= 13.000
                                        CONDUCTIVITY= 2.000E-03 MHOS/METER
                                        COMPLEX DIELECTRIC CONSTANT= 1.30000E+01-1.14133E+01



                                - - - MATRIX TIMING - - -

                        FILL=    0.047 SEC.,  FACTOR=    0.000 SEC.



                                          - - - ANTENNA INPUT PARAMETERS - - -

   TAG   SEG.    VOLTAGE (VOLTS)         CURRENT (AMPS)         IMPEDANCE (OHMS)        ADMITTANCE (MHOS)      POWER
   NO.   NO.    REAL        IMAG.       REAL        IMAG.       REAL        IMAG.       REAL        IMAG.     (WATTS)
     1     2 1.00000E+00 0.00000E+00 4.04125E-04-5.27341E-04 9.15541E+02 1.19469E+03 4.04125E-04-5.27341E-04 2.02062E-04



                             - - - CURRENTS AND LOCATION - - -

                                 DISTANCES IN WAVELENGTHS


  SEG.  TAG    COORD. OF SEG. CENTER     SEG.            - - - CURRENT (AMPS) - - -
  NO.   NO.     X        Y        Z      LENGTH     REAL        IMAG.       MAG.        PHASE
     1    1  -0.1628   0.0000   0.0225  0.00441   3.8381E-04 -5.2488E-04  6.5023E-04  -53.824
     2    1  -0.1595   0.0000   0.0254  0.00441   4.0412E-04 -5.2734E-04  6.6438E-04  -52.535
     3    1  -0.1562   0.0000   0.0284  0.00441   4.2429E-04 -5.8624E-04  7.2368E-04  -54.105
     4    1  -0.1529   0.0000   0.0313  0.00441   4.4417E-04 -6.4930E-04  7.8669E-04  -55.625
     5    1  -0.1497   0.0000   0.0343  0.00441   4.6362E-04 -7.0897E-04  8.4711E-04  -56.818
     6    1  -0.1464   0.0000   0.0372  0.00441   4.8190E-04 -7.6537E-04  9.0444E-04  -57.804
     7    1  -0.1431   0.0000   0.0401  0.00441   4.9972E-04 -8.1999E-04  9.6026E-04  -58.641
     8    1  -0.1398   0.0000   0.0431  0.00441   5.1717E-04 -8.7318E-04  1.0148E-03  -59.363
     9    1  -0.1365   0.0000   0.0460  0.00441   5.3422E-04 -9.2503E-04  1.0682E-03  -59.993
    10    1  -0.1332   0.0000   0.0490  0.00441   5.5087E-04 -9.7559E-04  1.1204E-03  -60.549
    11    1  -0.1299   0.0000   0.0519  0.00441   5.6711E-04 -1.0249E-03  1.1713E-03  -61.043
    12    1  -0.1266   0.0000   0.0548  0.00441   5.8292E-04 -1.0730E-03  1.2211E-03  -61.486
    13    1  -0.1233   0.0000   0.0578  0.00441   5.9830E-04 -1.1198E-03  1.2697E-03  -61.886
    14    1  -0.1201   0.0000   0.0607  0.00441   6.1324E-04 -1.1655E-03  1.3170E-03  -62.248
    15    1  -0.1168   0.0000   0.0637  0.00441   6.2774E-04 -1.2099E-03  1.3630E-03  -62.578
    16    1  -0.1135   0.0000   0.0666  0.00441   6.4178E-04 -1.2531E-03  1.4079E-03  -62.880
    17    1  -0.1102   0.0000   0.0696  0.00441   6.5536E-04 -1.2950E-03  1.4514E-03  -63.158
    18    1  -0.1069   0.0000   0.0725  0.00441   6.6847E-04 -1.3357E-03  1.4936E-03  -63.414
    19    1  -0.1036   0.0000   0.0754  0.00441   6.8111E-04 -1.3751E-03  1.5346E-03  -63.651
    20    1  -0.1003   0.0000   0.0784  0.00441   6.9326E-04 -1.4133E-03  1.5742E-03  -63.871
    21    1  -0.0970   0.0000   0.0813  0.00441   7.0493E-04 -1.4502E-03  1.6124E-03  -64.075
    22    1  -0.0937   0.0000   0.0843  0.00441   7.1610E-04 -1.4857E-03  1.6493E-03  -64.267
    23    1  -0.0905   0.0000   0.0872  0.00441   7.2677E-04 -1.5200E-03  1.6848E-03  -64.446
    24    1  -0.0872   0.0000   0.0902  0.00441   7.3693E-04 -1.5529E-03  1.7189E-03  -64.613
    25    1  -0.0839   0.0000   0.0931  0.00441   7.4658E-04 -1.5845E-03  1.7516E-03  -64.771
    26    1  -0.0806   0.0000   0.0960  0.00441   7.5571E-04 -1.6147E-03  1.7828E-03  -64.920
    27    1  -0.0773   0.0000   0.0990  0.00441   7.6431E-04 -1.6436E-03  1.8126E-03  -65.060
    28    1  -0.0740   0.0000   0.1019  0.00441   7.7239E-04 -1.6710E-03  1.8409E-03  -65.192
    29    1  -0.0707   0.0000   0.1049  0.00441   7.7993E-04 -1.6971E-03  1.8677E-03  -65.318
[...]
    31    1  -0.1216   0.0000   0.2099  0.00836   1.6477E-03 -1.0133E-03  1.9344E-03  -31.590
    32    1  -0.1153   0.0000   0.2155  0.00836   1.4704E-03 -9.5990E-04  1.7560E-03  -33.136
    33    1  -0.1091   0.0000   0.2210  0.00836   1.2896E-03 -9.0359E-04  1.5747E-03  -35.018
    34    1  -0.1029   0.0000   0.2266  0.00836   1.1057E-03 -8.4452E-04  1.3913E-03  -37.372
    35    1  -0.0966   0.0000   0.2322  0.00836   9.1924E-04 -7.8288E-04  1.2074E-03  -40.419
    36    1  -0.0904   0.0000   0.2378  0.00836   7.3070E-04 -7.1883E-04  1.0250E-03  -44.531
    37    1  -0.0842   0.0000   0.2433  0.00836   5.4060E-04 -6.5256E-04  8.4740E-04  -50.361
    38    1  -0.0779   0.0000   0.2489  0.00836   3.4943E-04 -5.8426E-04  6.8078E-04  -59.118
    39    1  -0.0717   0.0000   0.2545  0.00836   1.5771E-04 -5.1412E-04  5.3777E-04  -72.947
    40    1  -0.0655   0.0000   0.2601  0.00836  -3.4058E-05 -4.4234E-04  4.4365E-04  -94.403
    41    1  -0.0592   0.0000   0.2656  0.00836  -2.2535E-04 -3.6911E-04  4.3246E-04 -121.406
    42    1  -0.0530   0.0000   0.2712  0.00836  -4.1568E-04 -2.9464E-04  5.0951E-04 -144.670
    43    1  -0.0468   0.0000   0.2768  0.00836  -6.0452E-04 -2.1914E-04  6.4301E-04 -160.074
    44    1  -0.0405   0.0000   0.2824  0.00836  -7.9138E-04 -1.4281E-04  8.0416E-04 -169.771
    45    1  -0.0343   0.0000   0.2879  0.00836  -9.7576E-04 -6.5867E-05  9.7798E-04 -176.138
    46    1  -0.0281   0.0000   0.2935  0.00836  -1.1572E-03  1.1482E-05  1.1572E-03  179.432
    47    1  -0.0218   0.0000   0.2991  0.00836  -1.3352E-03  8.9026E-05  1.3381E-03  176.185
    48    1  -0.0156   0.0000   0.3047  0.00836  -1.5092E-03  1.6656E-04  1.5184E-03  173.702
    49    1  -0.0094   0.0000   0.3102  0.00836  -1.6789E-03  2.4387E-04  1.6966E-03  171.736
    50    1  -0.0031   0.0000   0.3158  0.00836  -1.8438E-03  3.2076E-04  1.8715E-03  170.131
    51    2   0.0031   0.0000   0.3158  0.00836  -2.0035E-03  3.9694E-04  2.0425E-03  168.794
    52    2   0.0094   0.0000   0.3102  0.00836  -2.1585E-03  4.7163E-04  2.2095E-03  167.675
    53    2   0.0156   0.0000   0.3047  0.00836  -2.3084E-03  5.4456E-04  2.3718E-03  166.727
    54    2   0.0218   0.0000   0.2991  0.00836  -2.4528E-03  6.1555E-04  2.5289E-03  165.912
    55    2   0.0281   0.0000   0.2935  0.00836  -2.5912E-03  6.8441E-04  2.6801E-03  165.205
    56    2   0.0343   0.0000   0.2879  0.00836  -2.7233E-03  7.5097E-04  2.8250E-03  164.584
    57    2   0.0405   0.0000   0.2824  0.00836  -2.8487E-03  8.1503E-04  2.9630E-03  164.034
    58    2   0.0468   0.0000   0.2768  0.00836  -2.9671E-03  8.7644E-04  3.0938E-03  163.543
    59    2   0.0530   0.0000   0.2712  0.00836  -3.0780E-03  9.3502E-04  3.2169E-03  163.102
    60    2   0.0592   0.0000   0.2656  0.00836  -3.1812E-03  9.9062E-04  3.3319E-03  162.704
    61    2   0.0655   0.0000   0.2601  0.00836  -3.2765E-03  1.0431E-03  3.4385E-03  162.341
    62    2   0.0717   0.0000   0.2545  0.00836  -3.3634E-03  1.0922E-03  3.5363E-03  162.009
    63    2   0.0779   0.0000   0.2489  0.00836  -3.4418E-03  1.1380E-03  3.6251E-03  161.704
    64    2   0.0842   0.0000   0.2433  0.00836  -3.5115E-03  1.1802E-03  3.7045E-03  161.423
    65    2   0.0904   0.0000   0.2378  0.00836  -3.5722E-03  1.2187E-03  3.7744E-03  161.162
    66    2   0.0966   0.0000   0.2322  0.00836  -3.6237E-03  1.2535E-03  3.8344E-03  160.919
    67    2   0.1029   0.0000   0.2266  0.00836  -3.6660E-03  1.2844E-03  3.8845E-03  160.692
    68    2   0.1091   0.0000   0.2210  0.00836  -3.6988E-03  1.3113E-03  3.9244E-03  160.480
    69    2   0.1153   0.0000   0.2155  0.00836  -3.7221E-03  1.3342E-03  3.9540E-03  160.280
    70    2   0.1216   0.0000   0.2099  0.00836  -3.7357E-03  1.3529E-03  3.9731E-03  160.092
    71    2   0.1278   0.0000   0.2043  0.00836  -3.7396E-03  1.3675E-03  3.9818E-03  159.914
    72    2   0.1340   0.0000   0.1987  0.00836  -3.7338E-03  1.3779E-03  3.9799E-03  159.745
    73    2   0.1403   0.0000   0.1932  0.00836  -3.7183E-03  1.3840E-03  3.9675E-03  159.584
    74    2   0.1465   0.0000   0.1876  0.00836  -3.6930E-03  1.3858E-03  3.9444E-03  159.432
    75    2   0.1527   0.0000   0.1820  0.00836  -3.6580E-03  1.3833E-03  3.9108E-03  159.286
    76    2   0.1590   0.0000   0.1764  0.00836  -3.6134E-03  1.3765E-03  3.8667E-03  159.146
    77    2   0.1652   0.0000   0.1709  0.00836  -3.5592E-03  1.3654E-03  3.8121E-03  159.012
    78    2   0.1714   0.0000   0.1653  0.00836  -3.4956E-03  1.3500E-03  3.7472E-03  158.883
    79    2   0.1777   0.0000   0.1597  0.00836  -3.4227E-03  1.3304E-03  3.6721E-03  158.759
    80    2   0.1839   0.0000   0.1541  0.00836  -3.3406E-03  1.3065E-03  3.5870E-03  158.640
    81    2   0.1901   0.0000   0.1486  0.00836  -3.2495E-03  1.2784E-03  3.4920E-03  158.524
    82    2   0.1964   0.0000   0.1430  0.00836  -3.1497E-03  1.2463E-03  3.3873E-03  158.413
    83    2   0.2026   0.0000   0.1374  0.00836  -3.0413E-03  1.2100E-03  3.2732E-03  158.304
    84    2   0.2088   0.0000   0.1318  0.00836  -2.9246E-03  1.1698E-03  3.1499E-03  158.199
    85    2   0.2151   0.0000   0.1263  0.00836  -2.7998E-03  1.1257E-03  3.0176E-03  158.097
    86    2   0.2213   0.0000   0.1207  0.00836  -2.6672E-03  1.0778E-03  2.8767E-03  157.997
    87    2   0.2275   0.0000   0.1151  0.00836  -2.5271E-03  1.0261E-03  2.7275E-03  157.900
    88    2   0.2338   0.0000   0.1095  0.00836  -2.3797E-03  9.7089E-04  2.5702E-03  157.805
    89    2   0.2400   0.0000   0.1039  0.00836  -2.2254E-03  9.1215E-04  2.4051E-03  157.712
    90    2   0.2462   0.0000   0.0984  0.00836  -2.0645E-03  8.5002E-04  2.2327E-03  157.622
    91    2   0.2525   0.0000   0.0928  0.00836  -1.8973E-03  7.8461E-04  2.0531E-03  157.533
    92    2   0.2587   0.0000   0.0872  0.00836  -1.7240E-03  7.1604E-04  1.8668E-03  157.445
    93    2   0.2649   0.0000   0.0816  0.00836  -1.5450E-03  6.4441E-04  1.6740E-03  157.359
    94    2   0.2712   0.0000   0.0761  0.00836  -1.3605E-03  5.6981E-04  1.4750E-03  157.275
    95    2   0.2774   0.0000   0.0705  0.00836  -1.1707E-03  4.9231E-04  1.2700E-03  157.192
    96    2   0.2836   0.0000   0.0649  0.00836  -9.7566E-04  4.1194E-04  1.0591E-03  157.110
    97    2   0.2899   0.0000   0.0593  0.00836  -7.7534E-04  3.2865E-04  8.4212E-04  157.029
    98    2   0.2961   0.0000   0.0538  0.00836  -5.6925E-04  2.4223E-04  6.1864E-04  156.949
    99    2   0.3023   0.0000   0.0482  0.00836  -3.5591E-04  1.5203E-04  3.8702E-04  156.870
   100    2   0.3086   0.0000   0.0426  0.00836  -1.2823E-04  5.4977E-05  1.3951E-04  156.793
   101    3  -0.3117   0.0000   0.0358  0.00797  -3.3057E-03  8.8603E-04  3.4224E-03  164.996
   102    3  -0.3117   0.0000   0.0279  0.00797  -3.1693E-03  9.2328E-04  3.3010E-03  163.758
   103    3  -0.3117   0.0000   0.0199  0.00797  -3.0229E-03  9.5300E-04  3.1696E-03  162.502
   104    3  -0.3117   0.0000   0.0119  0.00797  -2.8634E-03  9.7632E-04  3.0253E-03  161.172
   105    3  -0.3117   0.0000   0.0040  0.00797  -2.7109E-03  9.9220E-04  2.8868E-03  159.897



                                        - - - POWER BUDGET - - -

                                           INPUT POWER   = 1.7611E-03 WATTS
                                           RADIATED POWER= 1.7611E-03 WATTS
                                           STRUCTURE LOSS= 0.0000E+00 WATTS
                                           NETWORK LOSS  = 0.0000E+00 WATTS
                                           EFFICIENCY    = 100.00 PERCENT




                                 - - - - - - FREQUENCY - - - - - -

                                    FREQUENCY= 6.0000E+00 MHZ
                                    WAVELENGTH= 4.9967E+01 METERS




                    APPROXIMATE INTEGRATION EMPLOYED FOR SEGMENTS MORE THAN   1.000 WAVELENGTHS APART

                    THE EXTENDED THIN WIRE KERNEL WILL BE USED



                               - - - STRUCTURE IMPEDANCE LOADING - - -


       LOCATION          RESISTANCE   INDUCTANCE  CAPACITANCE       IMPEDANCE (OHMS)     CONDUCTIVITY    TYPE
    ITAG FROM THRU          OHMS        HENRYS       FARADS        REAL      IMAGINARY    MHOS/METER

       1    5    5                   1.5000E-06                                                        SERIES 



                                  - - - ANTENNA ENVIRONMENT - - -

                                        FINITE GROUND.  SOMMERFELD SOLUTION
                                        RELATIVE DIELECTRIC CONST.= 13.000
                                        CONDUCTIVITY= 2.000E-03 MHOS/METER
                                        COMPLEX DIELECTRIC CONSTANT= 1.30000E+01-5.99200E+00



                                - - - MATRIX TIMING - - -

                        FILL=    0.063 SEC.,  FACTOR=    0.000 SEC.



                                          - - - ANTENNA INPUT PARAMETERS - - -

   TAG   SEG.    VOLTAGE (VOLTS)         CURRENT (AMPS)         IMPEDANCE (OHMS)        ADMITTANCE (MHOS)      POWER
   NO.   NO.    REAL        IMAG.       REAL        IMAG.       REAL        IMAG.       REAL        IMAG.     (WATTS)
     1     2 1.00000E+00 0.00000E+00 3.35634E-03-9.89249E-04 2.74129E+02 8.07969E+01 3.35634E-03-9.89249E-04 1.67817E-03



                             - - - CURRENTS AND LOCATION - - -

                                 DISTANCES IN WAVELENGTHS


  SEG.  TAG    COORD. OF SEG. CENTER     SEG.            - - - CURRENT (AMPS) - - -
  NO.   NO.     X        Y        Z      LENGTH     REAL        IMAG.       MAG.        PHASE
     1    1  -0.3101   0.0000   0.0428  0.00841   3.2595E-03 -1.0164E-03  3.4143E-03  -17.318
     2    1  -0.3039   0.0000   0.0484  0.00841   3.3563E-03 -9.8925E-04  3.4991E-03  -16.422
     3    1  -0.2976   0.0000   0.0540  0.00841   3.4451E-03 -1.0671E-03  3.6066E-03  -17.209
     4    1  -0.2913   0.0000   0.0596  0.00841   3.5254E-03 -1.1505E-03  3.7084E-03  -18.073
     5    1  -0.2851   0.0000   0.0652  0.00841   3.5940E-03 -1.2244E-03  3.7969E-03  -18.813
     6    1  -0.2788   0.0000   0.0708  0.00841   3.6305E-03 -1.2842E-03  3.8510E-03  -19.480
     7    1  -0.2725   0.0000   0.0765  0.00841   3.6551E-03 -1.3374E-03  3.8921E-03  -20.098
     8    1  -0.2663   0.0000   0.0821  0.00841   3.6706E-03 -1.3854E-03  3.9234E-03  -20.678
     9    1  -0.2600   0.0000   0.0877  0.00841   3.6766E-03 -1.4282E-03  3.9443E-03  -21.229
    10    1  -0.2537   0.0000   0.0933  0.00841   3.6729E-03 -1.4657E-03  3.9545E-03  -21.755
    11    1  -0.2475   0.0000   0.0989  0.00841   3.6595E-03 -1.4981E-03  3.9542E-03  -22.263
    12    1  -0.2412   0.0000   0.1045  0.00841   3.6363E-03 -1.5254E-03  3.9433E-03  -22.757
    13    1  -0.2349   0.0000   0.1101  0.00841   3.6036E-03 -1.5475E-03  3.9218E-03  -23.240
    14    1  -0.2287   0.0000   0.1157  0.00841   3.5614E-03 -1.5645E-03  3.8899E-03  -23.715
    15    1  -0.2224   0.0000   0.1213  0.00841   3.5098E-03 -1.5764E-03  3.8475E-03  -24.187
    16    1  -0.2161   0.0000   0.1269  0.00841   3.4489E-03 -1.5832E-03  3.7949E-03  -24.658
    17    1  -0.2099   0.0000   0.1325  0.00841   3.3790E-03 -1.5851E-03  3.7323E-03  -25.131
    18    1  -0.2036   0.0000   0.1381  0.00841   3.3003E-03 -1.5819E-03  3.6598E-03  -25.609
    19    1  -0.1974   0.0000   0.1437  0.00841   3.2129E-03 -1.5738E-03  3.5777E-03  -26.097
    20    1  -0.1911   0.0000   0.1493  0.00841   3.1172E-03 -1.5608E-03  3.4861E-03  -26.597
    21    1  -0.1848   0.0000   0.1549  0.00841   3.0134E-03 -1.5430E-03  3.3855E-03  -27.114
    22    1  -0.1786   0.0000   0.1605  0.00841   2.9018E-03 -1.5205E-03  3.2760E-03  -27.653
    23    1  -0.1723   0.0000   0.1661  0.00841   2.7827E-03 -1.4933E-03  3.1581E-03  -28.220
    24    1  -0.1660   0.0000   0.1717  0.00841   2.6565E-03 -1.4616E-03  3.0320E-03  -28.820
    25    1  -0.1598   0.0000   0.1773  0.00841   2.5234E-03 -1.4255E-03  2.8982E-03  -29.463
    26    1  -0.1535   0.0000   0.1829  0.00841   2.3839E-03 -1.3851E-03  2.7571E-03  -30.157
    27    1  -0.1472   0.0000   0.1885  0.00841   2.2383E-03 -1.3405E-03  2.6090E-03  -30.916
    28    1  -0.1410   0.0000   0.1941  0.00841   2.0871E-03 -1.2918E-03  2.4546E-03  -31.756
    29    1  -0.1347   0.0000   0.1997  0.00841   1.9307E-03 -1.2393E-03  2.2942E-03  -32.697
    30    1  -0.1284   0.0000   0.2053  0.00841   1.7694E-03 -1.1831E-03  2.1285E-03  -33.769
    31    1  -0.1222   0.0000   0.2109  0.00841   1.6037E-03 -1.1233E-03  1.9580E-03  -35.009
    32    1  -0.1159   0.0000   0.2165  0.00841   1.4341E-03 -1.0602E-03  1.7834E-03  -36.473
    33    1  -0.1096   0.0000   0.2221  0.00841   1.2610E-03 -9.9380E-04  1.6056E-03  -38.241
    34    1  -0.1034   0.0000   0.2278  0.00841   1.0850E-03 -9.2445E-04  1.4254E-03  -40.433
    35    1  -0.0971   0.0000   0.2334  0.00841   9.0638E-04 -8.5230E-04  1.2442E-03  -43.239
    36    1  -0.0908   0.0000   0.2390  0.00841   7.2574E-04 -7.7756E-04  1.0636E-03  -46.974
    37    1  -0.0846   0.0000   0.2446  0.00841   5.4354E-04 -7.0044E-04  8.8659E-04  -52.189
    38    1  -0.0783   0.0000   0.2502  0.00841   3.6027E-04 -6.2116E-04  7.1808E-04  -59.887
    39    1  -0.0720   0.0000   0.2558  0.00841   1.7642E-04 -5.3995E-04  5.6804E-04  -71.906
    40    1  -0.0658   0.0000   0.2614  0.00841  -7.5086E-06 -4.5703E-04  4.5709E-04  -90.941
    41    1  -0.0595   0.0000   0.2670  0.00841  -1.9102E-04 -3.7263E-04  4.1874E-04 -117.141
    42    1  -0.0533   0.0000   0.2726  0.00841  -3.7364E-04 -2.8700E-04  4.7114E-04 -142.472
    43    1  -0.0470   0.0000   0.2782  0.00841  -5.5486E-04 -2.0036E-04  5.8993E-04 -160.145
    44    1  -0.0407   0.0000   0.2838  0.00841  -7.3420E-04 -1.1296E-04  7.4284E-04 -171.253
    45    1  -0.0345   0.0000   0.2894  0.00841  -9.1119E-04 -2.5045E-05  9.1153E-04 -178.426
    46    1  -0.0282   0.0000   0.2950  0.00841  -1.0853E-03  6.3151E-05  1.0872E-03  176.670
    47    1  -0.0219   0.0000   0.3006  0.00841  -1.2562E-03  1.5138E-04  1.2653E-03  173.129
    48    1  -0.0157   0.0000   0.3062  0.00841  -1.4233E-03  2.3941E-04  1.4433E-03  170.452
    49    1  -0.0094   0.0000   0.3118  0.00841  -1.5862E-03  3.2700E-04  1.6196E-03  168.352
    50    1  -0.0031   0.0000   0.3174  0.00841  -1.7445E-03  4.1392E-04  1.7930E-03  166.652
    51    2   0.0031   0.0000   0.3174  0.00841  -1.8979E-03  4.9986E-04  1.9626E-03  165.245
    52    2   0.0094   0.0000   0.3118  0.00841  -2.0467E-03  5.8407E-04  2.1284E-03  164.073
    53    2   0.0157   0.0000   0.3062  0.00841  -2.1908E-03  6.6625E-04  2.2898E-03  163.084
    54    2   0.0219   0.0000   0.3006  0.00841  -2.3295E-03  7.4620E-04  2.4461E-03  162.239
    55    2   0.0282   0.0000   0.2950  0.00841  -2.4627E-03  8.2370E-04  2.5968E-03  161.506
    56    2   0.0345   0.0000   0.2894  0.00841  -2.5898E-03  8.9854E-04  2.7412E-03  160.865
    57    2   0.0407   0.0000   0.2838  0.00841  -2.7105E-03  9.7052E-04  2.8790E-03  160.300
    58    2   0.0470   0.0000   0.2782  0.00841  -2.8244E-03  1.0394E-03  3.0096E-03  159.796
    59    2   0.0533   0.0000   0.2726  0.00841  -2.9313E-03  1.1051E-03  3.1327E-03  159.344
    60    2   0.0595   0.0000   0.2670  0.00841  -3.0309E-03  1.1674E-03  3.2479E-03  158.936
    61    2   0.0658   0.0000   0.2614  0.00841  -3.1228E-03  1.2260E-03  3.3548E-03  158.565
    62    2   0.0720   0.0000   0.2558  0.00841  -3.2067E-03  1.2809E-03  3.4531E-03  158.227
    63    2   0.0783   0.0000   0.2502  0.00841  -3.2825E-03  1.3318E-03  3.5424E-03  157.916
    64    2   0.0846   0.0000   0.2446  0.00841  -3.3499E-03  1.3787E-03  3.6225E-03  157.630
    65    2   0.0908   0.0000   0.2390  0.00841  -3.4087E-03  1.4214E-03  3.6932E-03  157.364
    66    2   0.0971   0.0000   0.2334  0.00841  -3.4587E-03  1.4598E-03  3.7542E-03  157.118
    67    2   0.1034   0.0000   0.2278  0.00841  -3.4998E-03  1.4937E-03  3.8053E-03  156.888
    68    2   0.1096   0.0000   0.2221  0.00841  -3.5319E-03  1.5231E-03  3.8463E-03  156.672
    69    2   0.1159   0.0000   0.2165  0.00841  -3.5548E-03  1.5479E-03  3.8772E-03  156.470
    70    2   0.1222   0.0000   0.2109  0.00841  -3.5684E-03  1.5679E-03  3.8977E-03  156.280
    71    2   0.1284   0.0000   0.2053  0.00841  -3.5727E-03  1.5832E-03  3.9078E-03  156.100
    72    2   0.1347   0.0000   0.1997  0.00841  -3.5677E-03  1.5937E-03  3.9075E-03  155.929
    73    2   0.1410   0.0000   0.1941  0.00841  -3.5533E-03  1.5994E-03  3.8967E-03  155.767
    74    2   0.1472   0.0000   0.1885  0.00841  -3.5296E-03  1.6001E-03  3.8754E-03  155.613
    75    2   0.1535   0.0000   0.1829  0.00841  -3.4965E-03  1.5960E-03  3.8436E-03  155.466
    76    2   0.1598   0.0000   0.1773  0.00841  -3.4542E-03  1.5870E-03  3.8013E-03  155.325
    77    2   0.1660   0.0000   0.1717  0.00841  -3.4028E-03  1.5730E-03  3.7488E-03  155.190
    78    2   0.1723   0.0000   0.1661  0.00841  -3.3422E-03  1.5542E-03  3.6859E-03  155.060
    79    2   0.1786   0.0000   0.1605  0.00841  -3.2727E-03  1.5306E-03  3.6129E-03  154.936
    80    2   0.1848   0.0000   0.1549  0.00841  -3.1944E-03  1.5021E-03  3.5300E-03  154.815
    81    2   0.1911   0.0000   0.1493  0.00841  -3.1075E-03  1.4690E-03  3.4372E-03  154.699
    82    2   0.1974   0.0000   0.1437  0.00841  -3.0122E-03  1.4311E-03  3.3349E-03  154.587
    83    2   0.2036   0.0000   0.1381  0.00841  -2.9086E-03  1.3887E-03  3.2231E-03  154.478
    84    2   0.2099   0.0000   0.1325  0.00841  -2.7971E-03  1.3418E-03  3.1023E-03  154.372
    85    2   0.2161   0.0000   0.1269  0.00841  -2.6778E-03  1.2905E-03  2.9725E-03  154.269
    86    2   0.2224   0.0000   0.1213  0.00841  -2.5509E-03  1.2349E-03  2.8341E-03  154.169
    87    2   0.2287   0.0000   0.1157  0.00841  -2.4169E-03  1.1751E-03  2.6874E-03  154.072
    88    2   0.2349   0.0000   0.1101  0.00841  -2.2760E-03  1.1112E-03  2.5328E-03  153.976
    89    2   0.2412   0.0000   0.1045  0.00841  -2.1284E-03  1.0434E-03  2.3704E-03  153.883
    90    2   0.2475   0.0000   0.0989  0.00841  -1.9744E-03  9.7187E-04  2.2006E-03  153.792
    91    2   0.2537   0.0000   0.0933  0.00841  -1.8144E-03  8.9663E-04  2.0239E-03  153.703
    92    2   0.2600   0.0000   0.0877  0.00841  -1.6486E-03  8.1785E-04  1.8403E-03  153.615
    93    2   0.2663   0.0000   0.0821  0.00841  -1.4774E-03  7.3566E-04  1.6504E-03  153.529
    94    2   0.2725   0.0000   0.0765  0.00841  -1.3009E-03  6.5017E-04  1.4543E-03  153.444
    95    2   0.2788   0.0000   0.0708  0.00841  -1.1193E-03  5.6147E-04  1.2522E-03  153.361
    96    2   0.2851   0.0000   0.0652  0.00841  -9.3278E-04  4.6958E-04  1.0443E-03  153.278
    97    2   0.2913   0.0000   0.0596  0.00841  -7.4120E-04  3.7445E-04  8.3042E-04  153.197
    98    2   0.2976   0.0000   0.0540  0.00841  -5.4413E-04  2.7585E-04  6.1006E-04  153.117
    99    2   0.3039   0.0000   0.0484  0.00841  -3.4017E-04  1.7304E-04  3.8165E-04  153.038
   100    2   0.3101   0.0000   0.0428  0.00841  -1.2254E-04  6.2545E-05  1.3758E-04  152.961
   101    3  -0.3133   0.0000   0.0360  0.00801  -3.1440E-03  1.0518E-03  3.3153E-03  161.502
   102    3  -0.3133   0.0000   0.0280  0.00801  -3.0105E-03  1.0802E-03  3.1985E-03  160.262
   103    3  -0.3133   0.0000   0.0200  0.00801  -2.8677E-03  1.1005E-03  3.0716E-03  159.006
   104    3  -0.3133   0.0000   0.0120  0.00801  -2.7122E-03  1.1136E-03  2.9319E-03  157.678
   105    3  -0.3133   0.0000   0.0040  0.00801  -2.5638E-03  1.1198E-03  2.7977E-03  156.405



                                        - - - POWER BUDGET - - -

                                           INPUT POWER   = 1.6782E-03 WATTS
                                           RADIATED POWER= 1.6782E-03 WATTS
                                           STRUCTURE LOSS= 0.0000E+00 WATTS
                                           NETWORK LOSS  = 0.0000E+00 WATTS
                                           EFFICIENCY    = 100.00 PERCENT
 ***** DATA CARD NO.  7   EN   0     0     0     0  0.00000E+00  0.00000E+00  0.00000E+00  0.00000E+00  0.00000E+00  0.00000E+00

 RUN TIME =    12.484
